                                                                
version 2
run plain-0-20231030-12:25:59-41698
attr configname plain
attr datetime 20231030-12:25:59
attr experiment plain
attr inifile omnetpp.ini
attr iterationvars ""
attr iterationvarsf ""
attr measurement ""
attr network Scenario
attr processid 41698
attr repetition 0
attr replication #0
attr resultdir results
attr runnumber 0
attr seedset 0
param *.node[*].numApps 1
param *.node[*].app[0].typename "\"test.veins_inet.VeinsInetSampleApplication\""
param *.node[*].app[0].interface "\"wlan0\""
param *.node[*].wlan[0].opMode "\"p\""
param *.node[*].wlan[0].radio.typename "\"Ieee80211DimensionalRadio\""
param *.node[*].wlan[0].radio.bandName "\"5.9 GHz\""
param *.node[*].wlan[0].radio.channelNumber 3
param *.node[*].wlan[0].radio.transmitter.power 20mW
param *.node[*].wlan[0].radio.bandwidth "10 MHz"
param *.node[*].wlan[*].radio.antenna.mobility.typename "\"AttachedMobility\""
param *.node[*].wlan[*].radio.antenna.mobility.mobilityModule "\"^.^.^.^.mobility\""
param *.node[*].wlan[*].radio.antenna.mobility.offsetX -2.5m
param *.node[*].wlan[*].radio.antenna.mobility.offsetZ 1.5m
param *.node[*].wlan[*].radio.antenna.mobility.constraintAreaMinX 0m
param *.node[*].wlan[*].radio.antenna.mobility.constraintAreaMaxX 0m
param *.node[*].wlan[*].radio.antenna.mobility.constraintAreaMinY 0m
param *.node[*].wlan[*].radio.antenna.mobility.constraintAreaMaxY 0m
param *.node[*].wlan[*].radio.antenna.mobility.constraintAreaMinZ 0m
param *.node[*].wlan[*].radio.antenna.mobility.constraintAreaMaxZ 0m
param *.node[*].ipv4.configurator.typename "\"HostAutoConfigurator\""
param *.node[*].ipv4.configurator.interfaces "\"wlan0\""
param *.node[*].ipv4.configurator.mcastGroups "\"224.0.0.1\""
param *.node[*].mobility.typename "\"VeinsInetMobility\""
param *.manager.updateInterval 0.5s
param *.manager.host "\"localhost\""
param *.manager.port 9999
param *.manager.autoShutdown true
param *.manager.launchConfig "xmldoc(\"tulsa.launchd.xml\")"
param *.manager.moduleType "\"test.veins_inet.VeinsInetCar\""
param *.radioMedium.obstacleLoss.typename "\"IdealObstacleLoss\""

vector 0 Scenario.node[0].wlan[0].radio radioMode:vector ETV
attr interpolationmode sample-hold
attr source radioModeChanged
attr title "Radio mode, vector"
vector 1 Scenario.node[0].wlan[0].radio radioChannel:vector ETV
attr interpolationmode sample-hold
attr source radioChannelChanged
attr title "Radio channel, vector"
vector 2 Scenario.node[0].wlan[0].radio receptionState:vector ETV
attr interpolationmode sample-hold
attr source receptionStateChanged
attr title "Radio reception state, vector"
vector 3 Scenario.node[0].wlan[0].mac.dcf.recoveryProcedure contentionWindowChanged:vector ETV
attr interpolationmode sample-hold
attr title "contention window, vector"
vector 4 Scenario.node[1].wlan[0].radio radioMode:vector ETV
attr interpolationmode sample-hold
attr source radioModeChanged
attr title "Radio mode, vector"
vector 5 Scenario.node[1].wlan[0].radio radioChannel:vector ETV
attr interpolationmode sample-hold
attr source radioChannelChanged
attr title "Radio channel, vector"
vector 6 Scenario.node[1].wlan[0].radio receptionState:vector ETV
attr interpolationmode sample-hold
attr source receptionStateChanged
attr title "Radio reception state, vector"
vector 7 Scenario.node[1].wlan[0].mac.dcf.recoveryProcedure contentionWindowChanged:vector ETV
attr interpolationmode sample-hold
attr title "contention window, vector"
vector 8 Scenario.node[2].wlan[0].radio radioMode:vector ETV
attr interpolationmode sample-hold
attr source radioModeChanged
attr title "Radio mode, vector"
vector 9 Scenario.node[2].wlan[0].radio radioChannel:vector ETV
attr interpolationmode sample-hold
attr source radioChannelChanged
attr title "Radio channel, vector"
vector 10 Scenario.node[2].wlan[0].radio receptionState:vector ETV
attr interpolationmode sample-hold
attr source receptionStateChanged
attr title "Radio reception state, vector"
vector 11 Scenario.node[2].wlan[0].mac.dcf.recoveryProcedure contentionWindowChanged:vector ETV
attr interpolationmode sample-hold
attr title "contention window, vector"
vector 12 Scenario.node[3].wlan[0].radio radioMode:vector ETV
attr interpolationmode sample-hold
attr source radioModeChanged
attr title "Radio mode, vector"
vector 13 Scenario.node[3].wlan[0].radio radioChannel:vector ETV
attr interpolationmode sample-hold
attr source radioChannelChanged
attr title "Radio channel, vector"
vector 14 Scenario.node[3].wlan[0].radio receptionState:vector ETV
attr interpolationmode sample-hold
attr source receptionStateChanged
attr title "Radio reception state, vector"
vector 15 Scenario.node[3].wlan[0].mac.dcf.recoveryProcedure contentionWindowChanged:vector ETV
attr interpolationmode sample-hold
attr title "contention window, vector"
vector 16 Scenario.node[4].wlan[0].radio radioMode:vector ETV
attr interpolationmode sample-hold
attr source radioModeChanged
attr title "Radio mode, vector"
vector 17 Scenario.node[4].wlan[0].radio radioChannel:vector ETV
attr interpolationmode sample-hold
attr source radioChannelChanged
attr title "Radio channel, vector"
vector 18 Scenario.node[4].wlan[0].radio receptionState:vector ETV
attr interpolationmode sample-hold
attr source receptionStateChanged
attr title "Radio reception state, vector"
vector 19 Scenario.node[4].wlan[0].mac.dcf.recoveryProcedure contentionWindowChanged:vector ETV
attr interpolationmode sample-hold
attr title "contention window, vector"
vector 20 Scenario.node[5].wlan[0].radio radioMode:vector ETV
attr interpolationmode sample-hold
attr source radioModeChanged
attr title "Radio mode, vector"
vector 21 Scenario.node[5].wlan[0].radio radioChannel:vector ETV
attr interpolationmode sample-hold
attr source radioChannelChanged
attr title "Radio channel, vector"
vector 22 Scenario.node[5].wlan[0].radio receptionState:vector ETV
attr interpolationmode sample-hold
attr source receptionStateChanged
attr title "Radio reception state, vector"
vector 23 Scenario.node[5].wlan[0].mac.dcf.recoveryProcedure contentionWindowChanged:vector ETV
attr interpolationmode sample-hold
attr title "contention window, vector"
vector 24 Scenario.node[6].wlan[0].radio radioMode:vector ETV
attr interpolationmode sample-hold
attr source radioModeChanged
attr title "Radio mode, vector"
vector 25 Scenario.node[6].wlan[0].radio radioChannel:vector ETV
attr interpolationmode sample-hold
attr source radioChannelChanged
attr title "Radio channel, vector"
vector 26 Scenario.node[6].wlan[0].radio receptionState:vector ETV
attr interpolationmode sample-hold
attr source receptionStateChanged
attr title "Radio reception state, vector"
vector 27 Scenario.node[6].wlan[0].mac.dcf.recoveryProcedure contentionWindowChanged:vector ETV
attr interpolationmode sample-hold
attr title "contention window, vector"
vector 28 Scenario.node[7].wlan[0].radio radioMode:vector ETV
attr interpolationmode sample-hold
attr source radioModeChanged
attr title "Radio mode, vector"
vector 29 Scenario.node[7].wlan[0].radio radioChannel:vector ETV
attr interpolationmode sample-hold
attr source radioChannelChanged
attr title "Radio channel, vector"
vector 30 Scenario.node[7].wlan[0].radio receptionState:vector ETV
attr interpolationmode sample-hold
attr source receptionStateChanged
attr title "Radio reception state, vector"
vector 31 Scenario.node[7].wlan[0].mac.dcf.recoveryProcedure contentionWindowChanged:vector ETV
attr interpolationmode sample-hold
attr title "contention window, vector"
vector 32 Scenario.node[8].wlan[0].radio radioMode:vector ETV
attr interpolationmode sample-hold
attr source radioModeChanged
attr title "Radio mode, vector"
vector 33 Scenario.node[8].wlan[0].radio radioChannel:vector ETV
attr interpolationmode sample-hold
attr source radioChannelChanged
attr title "Radio channel, vector"
vector 34 Scenario.node[8].wlan[0].radio receptionState:vector ETV
attr interpolationmode sample-hold
attr source receptionStateChanged
attr title "Radio reception state, vector"
vector 35 Scenario.node[8].wlan[0].mac.dcf.recoveryProcedure contentionWindowChanged:vector ETV
attr interpolationmode sample-hold
attr title "contention window, vector"
vector 36 Scenario.node[9].wlan[0].radio radioMode:vector ETV
attr interpolationmode sample-hold
attr source radioModeChanged
attr title "Radio mode, vector"
vector 37 Scenario.node[9].wlan[0].radio radioChannel:vector ETV
attr interpolationmode sample-hold
attr source radioChannelChanged
attr title "Radio channel, vector"
vector 38 Scenario.node[9].wlan[0].radio receptionState:vector ETV
attr interpolationmode sample-hold
attr source receptionStateChanged
attr title "Radio reception state, vector"
vector 39 Scenario.node[9].wlan[0].mac.dcf.recoveryProcedure contentionWindowChanged:vector ETV
attr interpolationmode sample-hold
attr title "contention window, vector"
vector 40 Scenario.node[10].wlan[0].radio radioMode:vector ETV
attr interpolationmode sample-hold
attr source radioModeChanged
attr title "Radio mode, vector"
vector 41 Scenario.node[10].wlan[0].radio radioChannel:vector ETV
attr interpolationmode sample-hold
attr source radioChannelChanged
attr title "Radio channel, vector"
vector 42 Scenario.node[10].wlan[0].radio receptionState:vector ETV
attr interpolationmode sample-hold
attr source receptionStateChanged
attr title "Radio reception state, vector"
vector 43 Scenario.node[10].wlan[0].mac.dcf.recoveryProcedure contentionWindowChanged:vector ETV
attr interpolationmode sample-hold
attr title "contention window, vector"
vector 44 Scenario.node[11].wlan[0].radio radioMode:vector ETV
attr interpolationmode sample-hold
attr source radioModeChanged
attr title "Radio mode, vector"
vector 45 Scenario.node[11].wlan[0].radio radioChannel:vector ETV
attr interpolationmode sample-hold
attr source radioChannelChanged
attr title "Radio channel, vector"
vector 46 Scenario.node[11].wlan[0].radio receptionState:vector ETV
attr interpolationmode sample-hold
attr source receptionStateChanged
attr title "Radio reception state, vector"
vector 47 Scenario.node[11].wlan[0].mac.dcf.recoveryProcedure contentionWindowChanged:vector ETV
attr interpolationmode sample-hold
attr title "contention window, vector"
vector 48 Scenario.node[12].wlan[0].radio radioMode:vector ETV
attr interpolationmode sample-hold
attr source radioModeChanged
attr title "Radio mode, vector"
vector 49 Scenario.node[12].wlan[0].radio radioChannel:vector ETV
attr interpolationmode sample-hold
attr source radioChannelChanged
attr title "Radio channel, vector"
vector 50 Scenario.node[12].wlan[0].radio receptionState:vector ETV
attr interpolationmode sample-hold
attr source receptionStateChanged
attr title "Radio reception state, vector"
vector 51 Scenario.node[12].wlan[0].mac.dcf.recoveryProcedure contentionWindowChanged:vector ETV
attr interpolationmode sample-hold
attr title "contention window, vector"
vector 52 Scenario.node[13].wlan[0].radio radioMode:vector ETV
attr interpolationmode sample-hold
attr source radioModeChanged
attr title "Radio mode, vector"
vector 53 Scenario.node[13].wlan[0].radio radioChannel:vector ETV
attr interpolationmode sample-hold
attr source radioChannelChanged
attr title "Radio channel, vector"
vector 54 Scenario.node[13].wlan[0].radio receptionState:vector ETV
attr interpolationmode sample-hold
attr source receptionStateChanged
attr title "Radio reception state, vector"
vector 55 Scenario.node[13].wlan[0].mac.dcf.recoveryProcedure contentionWindowChanged:vector ETV
attr interpolationmode sample-hold
attr title "contention window, vector"
vector 56 Scenario.node[0].app[0] packetSent:vector(packetBytes) ETV
attr interpolationmode none
attr source packetSent
attr title "packets sent, vector(packetBytes)"
vector 57 Scenario.node[0].udp packetSent:vector(packetBytes) ETV
attr interpolationmode none
attr source packetSent
attr title "packets sent, vector(packetBytes)"
vector 58 Scenario.node[0].lo[0].lo rcvdPkFromHl:vector(packetBytes) ETV
attr interpolationmode none
attr source packetReceivedFromUpper
attr title "packets received from higher layer, vector(packetBytes)"
vector 59 Scenario.node[0].lo[0].lo passedUpPk:vector(packetBytes) ETV
attr interpolationmode none
attr source packetSentToUpper
attr title "packets passed to higher layer, vector(packetBytes)"
vector 60 Scenario.node[0].wlan[0].mac packetReceivedFromUpper:vector(packetBytes) ETV
attr interpolationmode none
attr title "packets received from upper layer, vector(packetBytes)"
vector 61 Scenario.node[0].wlan[0].mac.dcf.channelAccess.pendingQueue packetPushed:vector(packetBytes) ETV
attr interpolationmode none
attr title "packet pushed, vector(packetBytes)"
vector 62 Scenario.node[0].wlan[0].mac.dcf.channelAccess.pendingQueue queueLength:vector ETV
attr interpolationmode sample-hold
attr source "count(packetPushed) - count(packetPopped) - count(packetRemoved) - count(packetDropped)"
attr title "queue length, vector"
vector 63 Scenario.node[0].wlan[0].mac.dcf.channelAccess.contention backoffPeriodGenerated:vector ETV
attr interpolationmode none
attr title "backoff periods, vector"
vector 64 Scenario.node[0].wlan[0].mac.dcf.channelAccess.contention backoffActive:vector ETV
attr interpolationmode sample-hold
attr source count(backoffStarted)-count(backoffStopped)
attr title "backoff active, vector"
vector 65 Scenario.node[0].udp packetReceived:vector(packetBytes) ETV
attr interpolationmode none
attr source packetReceived
attr title "packets received, vector(packetBytes)"
vector 66 Scenario.node[0].udp passedUpPk:vector(count) ETV
attr interpolationmode none
attr source packetSentToUpper
attr title "packets passed up, vector(count)"
vector 67 Scenario.node[0].app[0] packetReceived:vector(packetBytes) ETV
attr interpolationmode none
attr source packetReceived
attr title "packets received, vector(packetBytes)"
vector 68 Scenario.node[0].app[0] throughput:vector ETV
attr source throughput(packetReceived)
attr title "throughput, vector"
attr unit bps
vector 69 Scenario.node[0].app[0] rcvdPkLifetime:vector ETV
attr interpolationmode none
attr source dataAge(packetReceived)
attr title "received packet lifetime, vector"
attr unit s
vector 70 Scenario.node[0].wlan[0].mac.dcf.channelAccess.pendingQueue packetPopped:vector(packetBytes) ETV
attr interpolationmode none
attr title "packet popped, vector(packetBytes)"
vector 71 Scenario.node[0].wlan[0].mac.dcf.channelAccess.pendingQueue queueingTime:vector ETV
attr interpolationmode none
attr source queueingTime(packetPopped)
attr title "queueing times, vector"
attr unit s
vector 72 Scenario.node[0].wlan[0].mac.dcf.channelAccess.inProgressFrames queueLength:vector ETV
attr interpolationmode sample-hold
attr source "count(packetEnqueued) - count(packetDequeued)"
attr title "queue length, vector"
vector 73 Scenario.node[0].wlan[0].mac.dcf datarateSelected:vector ETV
attr interpolationmode none
attr title "datarates selected, vector"
vector 74 Scenario.node[0].wlan[0].mac packetSentToLower:vector(packetBytes) ETV
attr interpolationmode none
attr title "packets sent to lower layer, vector(packetBytes)"
vector 75 Scenario.node[0].wlan[0].mac.dcf frameSequenceActive:vector ETV
attr interpolationmode sample-hold
attr source count(frameSequenceStarted)-count(frameSequenceFinished)
attr title "frame sequence active, vector"
vector 76 Scenario.node[0].wlan[0].radio transmissionState:vector ETV
attr interpolationmode sample-hold
attr source transmissionStateChanged
attr title "Radio transmission state, vector"
vector 77 Scenario.node[0].wlan[0].mac.dcf packetSentToPeer:vector(packetBytes) ETV
attr interpolationmode none
attr title "packets sent, vector(packetBytes)"
vector 78 Scenario.node[0].wlan[0].mac.dcf packetSentToPeerMulticast:vector(packetBytes) ETV
attr interpolationmode none
attr source ieee80211Multicast(packetSentToPeer)
attr title "packets sent: multicast, vector(packetBytes)"
vector 79 Scenario.node[0].wlan[0].mac.dcf packetSentToPeerWithoutRetry:vector(packetBytes) ETV
attr interpolationmode none
attr source ieee80211NotRetry(packetSentToPeer)
attr title "packets sent: without retry, vector(packetBytes)"
vector 80 Scenario.node[0].wlan[0].mac.dcf.channelAccess.inProgressFrames queueingTime:vector ETV
attr interpolationmode none
attr source queueingTime(packetDequeued)
attr title "queueing times, vector"
vector 81 Scenario.node[14].wlan[0].radio radioMode:vector ETV
attr interpolationmode sample-hold
attr source radioModeChanged
attr title "Radio mode, vector"
vector 82 Scenario.node[14].wlan[0].radio radioChannel:vector ETV
attr interpolationmode sample-hold
attr source radioChannelChanged
attr title "Radio channel, vector"
vector 83 Scenario.node[14].wlan[0].radio receptionState:vector ETV
attr interpolationmode sample-hold
attr source receptionStateChanged
attr title "Radio reception state, vector"
vector 84 Scenario.node[14].wlan[0].mac.dcf.recoveryProcedure contentionWindowChanged:vector ETV
attr interpolationmode sample-hold
attr title "contention window, vector"
vector 85 Scenario.node[15].wlan[0].radio radioMode:vector ETV
attr interpolationmode sample-hold
attr source radioModeChanged
attr title "Radio mode, vector"
vector 86 Scenario.node[15].wlan[0].radio radioChannel:vector ETV
attr interpolationmode sample-hold
attr source radioChannelChanged
attr title "Radio channel, vector"
vector 87 Scenario.node[15].wlan[0].radio receptionState:vector ETV
attr interpolationmode sample-hold
attr source receptionStateChanged
attr title "Radio reception state, vector"
vector 88 Scenario.node[15].wlan[0].mac.dcf.recoveryProcedure contentionWindowChanged:vector ETV
attr interpolationmode sample-hold
attr title "contention window, vector"
vector 89 Scenario.node[16].wlan[0].radio radioMode:vector ETV
attr interpolationmode sample-hold
attr source radioModeChanged
attr title "Radio mode, vector"
vector 90 Scenario.node[16].wlan[0].radio radioChannel:vector ETV
attr interpolationmode sample-hold
attr source radioChannelChanged
attr title "Radio channel, vector"
vector 91 Scenario.node[16].wlan[0].radio receptionState:vector ETV
attr interpolationmode sample-hold
attr source receptionStateChanged
attr title "Radio reception state, vector"
vector 92 Scenario.node[16].wlan[0].mac.dcf.recoveryProcedure contentionWindowChanged:vector ETV
attr interpolationmode sample-hold
attr title "contention window, vector"
vector 93 Scenario.node[17].wlan[0].radio radioMode:vector ETV
attr interpolationmode sample-hold
attr source radioModeChanged
attr title "Radio mode, vector"
vector 94 Scenario.node[17].wlan[0].radio radioChannel:vector ETV
attr interpolationmode sample-hold
attr source radioChannelChanged
attr title "Radio channel, vector"
vector 95 Scenario.node[17].wlan[0].radio receptionState:vector ETV
attr interpolationmode sample-hold
attr source receptionStateChanged
attr title "Radio reception state, vector"
vector 96 Scenario.node[17].wlan[0].mac.dcf.recoveryProcedure contentionWindowChanged:vector ETV
attr interpolationmode sample-hold
attr title "contention window, vector"
vector 97 Scenario.node[18].wlan[0].radio radioMode:vector ETV
attr interpolationmode sample-hold
attr source radioModeChanged
attr title "Radio mode, vector"
vector 98 Scenario.node[18].wlan[0].radio radioChannel:vector ETV
attr interpolationmode sample-hold
attr source radioChannelChanged
attr title "Radio channel, vector"
vector 99 Scenario.node[18].wlan[0].radio receptionState:vector ETV
attr interpolationmode sample-hold
attr source receptionStateChanged
attr title "Radio reception state, vector"
vector 100 Scenario.node[18].wlan[0].mac.dcf.recoveryProcedure contentionWindowChanged:vector ETV
attr interpolationmode sample-hold
attr title "contention window, vector"
vector 101 Scenario.node[19].wlan[0].radio radioMode:vector ETV
attr interpolationmode sample-hold
attr source radioModeChanged
attr title "Radio mode, vector"
vector 102 Scenario.node[19].wlan[0].radio radioChannel:vector ETV
attr interpolationmode sample-hold
attr source radioChannelChanged
attr title "Radio channel, vector"
vector 103 Scenario.node[19].wlan[0].radio receptionState:vector ETV
attr interpolationmode sample-hold
attr source receptionStateChanged
attr title "Radio reception state, vector"
vector 104 Scenario.node[19].wlan[0].mac.dcf.recoveryProcedure contentionWindowChanged:vector ETV
attr interpolationmode sample-hold
attr title "contention window, vector"
vector 105 Scenario.node[20].wlan[0].radio radioMode:vector ETV
attr interpolationmode sample-hold
attr source radioModeChanged
attr title "Radio mode, vector"
vector 106 Scenario.node[20].wlan[0].radio radioChannel:vector ETV
attr interpolationmode sample-hold
attr source radioChannelChanged
attr title "Radio channel, vector"
vector 107 Scenario.node[20].wlan[0].radio receptionState:vector ETV
attr interpolationmode sample-hold
attr source receptionStateChanged
attr title "Radio reception state, vector"
vector 108 Scenario.node[20].wlan[0].mac.dcf.recoveryProcedure contentionWindowChanged:vector ETV
attr interpolationmode sample-hold
attr title "contention window, vector"
vector 109 Scenario.node[21].wlan[0].radio radioMode:vector ETV
attr interpolationmode sample-hold
attr source radioModeChanged
attr title "Radio mode, vector"
vector 110 Scenario.node[21].wlan[0].radio radioChannel:vector ETV
attr interpolationmode sample-hold
attr source radioChannelChanged
attr title "Radio channel, vector"
vector 111 Scenario.node[21].wlan[0].radio receptionState:vector ETV
attr interpolationmode sample-hold
attr source receptionStateChanged
attr title "Radio reception state, vector"
vector 112 Scenario.node[21].wlan[0].mac.dcf.recoveryProcedure contentionWindowChanged:vector ETV
attr interpolationmode sample-hold
attr title "contention window, vector"
vector 113 Scenario.node[22].wlan[0].radio radioMode:vector ETV
attr interpolationmode sample-hold
attr source radioModeChanged
attr title "Radio mode, vector"
vector 114 Scenario.node[22].wlan[0].radio radioChannel:vector ETV
attr interpolationmode sample-hold
attr source radioChannelChanged
attr title "Radio channel, vector"
vector 115 Scenario.node[22].wlan[0].radio receptionState:vector ETV
attr interpolationmode sample-hold
attr source receptionStateChanged
attr title "Radio reception state, vector"
vector 116 Scenario.node[22].wlan[0].mac.dcf.recoveryProcedure contentionWindowChanged:vector ETV
attr interpolationmode sample-hold
attr title "contention window, vector"
vector 117 Scenario.node[23].wlan[0].radio radioMode:vector ETV
attr interpolationmode sample-hold
attr source radioModeChanged
attr title "Radio mode, vector"
vector 118 Scenario.node[23].wlan[0].radio radioChannel:vector ETV
attr interpolationmode sample-hold
attr source radioChannelChanged
attr title "Radio channel, vector"
vector 119 Scenario.node[23].wlan[0].radio receptionState:vector ETV
attr interpolationmode sample-hold
attr source receptionStateChanged
attr title "Radio reception state, vector"
vector 120 Scenario.node[23].wlan[0].mac.dcf.recoveryProcedure contentionWindowChanged:vector ETV
attr interpolationmode sample-hold
attr title "contention window, vector"
vector 121 Scenario.node[24].wlan[0].radio radioMode:vector ETV
attr interpolationmode sample-hold
attr source radioModeChanged
attr title "Radio mode, vector"
vector 122 Scenario.node[24].wlan[0].radio radioChannel:vector ETV
attr interpolationmode sample-hold
attr source radioChannelChanged
attr title "Radio channel, vector"
vector 123 Scenario.node[24].wlan[0].radio receptionState:vector ETV
attr interpolationmode sample-hold
attr source receptionStateChanged
attr title "Radio reception state, vector"
vector 124 Scenario.node[24].wlan[0].mac.dcf.recoveryProcedure contentionWindowChanged:vector ETV
attr interpolationmode sample-hold
attr title "contention window, vector"
vector 125 Scenario.node[25].wlan[0].radio radioMode:vector ETV
attr interpolationmode sample-hold
attr source radioModeChanged
attr title "Radio mode, vector"
vector 126 Scenario.node[25].wlan[0].radio radioChannel:vector ETV
attr interpolationmode sample-hold
attr source radioChannelChanged
attr title "Radio channel, vector"
vector 127 Scenario.node[25].wlan[0].radio receptionState:vector ETV
attr interpolationmode sample-hold
attr source receptionStateChanged
attr title "Radio reception state, vector"
vector 128 Scenario.node[25].wlan[0].mac.dcf.recoveryProcedure contentionWindowChanged:vector ETV
attr interpolationmode sample-hold
attr title "contention window, vector"
vector 129 Scenario.node[26].wlan[0].radio radioMode:vector ETV
attr interpolationmode sample-hold
attr source radioModeChanged
attr title "Radio mode, vector"
vector 130 Scenario.node[26].wlan[0].radio radioChannel:vector ETV
attr interpolationmode sample-hold
attr source radioChannelChanged
attr title "Radio channel, vector"
vector 131 Scenario.node[26].wlan[0].radio receptionState:vector ETV
attr interpolationmode sample-hold
attr source receptionStateChanged
attr title "Radio reception state, vector"
vector 132 Scenario.node[26].wlan[0].mac.dcf.recoveryProcedure contentionWindowChanged:vector ETV
attr interpolationmode sample-hold
attr title "contention window, vector"
vector 133 Scenario.node[27].wlan[0].radio radioMode:vector ETV
attr interpolationmode sample-hold
attr source radioModeChanged
attr title "Radio mode, vector"
vector 134 Scenario.node[27].wlan[0].radio radioChannel:vector ETV
attr interpolationmode sample-hold
attr source radioChannelChanged
attr title "Radio channel, vector"
vector 135 Scenario.node[27].wlan[0].radio receptionState:vector ETV
attr interpolationmode sample-hold
attr source receptionStateChanged
attr title "Radio reception state, vector"
vector 136 Scenario.node[27].wlan[0].mac.dcf.recoveryProcedure contentionWindowChanged:vector ETV
attr interpolationmode sample-hold
attr title "contention window, vector"
vector 137 Scenario.node[28].wlan[0].radio radioMode:vector ETV
attr interpolationmode sample-hold
attr source radioModeChanged
attr title "Radio mode, vector"
vector 138 Scenario.node[28].wlan[0].radio radioChannel:vector ETV
attr interpolationmode sample-hold
attr source radioChannelChanged
attr title "Radio channel, vector"
vector 139 Scenario.node[28].wlan[0].radio receptionState:vector ETV
attr interpolationmode sample-hold
attr source receptionStateChanged
attr title "Radio reception state, vector"
vector 140 Scenario.node[28].wlan[0].mac.dcf.recoveryProcedure contentionWindowChanged:vector ETV
attr interpolationmode sample-hold
attr title "contention window, vector"
vector 141 Scenario.node[29].wlan[0].radio radioMode:vector ETV
attr interpolationmode sample-hold
attr source radioModeChanged
attr title "Radio mode, vector"
vector 142 Scenario.node[29].wlan[0].radio radioChannel:vector ETV
attr interpolationmode sample-hold
attr source radioChannelChanged
attr title "Radio channel, vector"
vector 143 Scenario.node[29].wlan[0].radio receptionState:vector ETV
attr interpolationmode sample-hold
attr source receptionStateChanged
attr title "Radio reception state, vector"
vector 144 Scenario.node[29].wlan[0].mac.dcf.recoveryProcedure contentionWindowChanged:vector ETV
attr interpolationmode sample-hold
attr title "contention window, vector"
vector 145 Scenario.node[30].wlan[0].radio radioMode:vector ETV
attr interpolationmode sample-hold
attr source radioModeChanged
attr title "Radio mode, vector"
vector 146 Scenario.node[30].wlan[0].radio radioChannel:vector ETV
attr interpolationmode sample-hold
attr source radioChannelChanged
attr title "Radio channel, vector"
vector 147 Scenario.node[30].wlan[0].radio receptionState:vector ETV
attr interpolationmode sample-hold
attr source receptionStateChanged
attr title "Radio reception state, vector"
vector 148 Scenario.node[30].wlan[0].mac.dcf.recoveryProcedure contentionWindowChanged:vector ETV
attr interpolationmode sample-hold
attr title "contention window, vector"
vector 149 Scenario.node[31].wlan[0].radio radioMode:vector ETV
attr interpolationmode sample-hold
attr source radioModeChanged
attr title "Radio mode, vector"
vector 150 Scenario.node[31].wlan[0].radio radioChannel:vector ETV
attr interpolationmode sample-hold
attr source radioChannelChanged
attr title "Radio channel, vector"
vector 151 Scenario.node[31].wlan[0].radio receptionState:vector ETV
attr interpolationmode sample-hold
attr source receptionStateChanged
attr title "Radio reception state, vector"
vector 152 Scenario.node[31].wlan[0].mac.dcf.recoveryProcedure contentionWindowChanged:vector ETV
attr interpolationmode sample-hold
attr title "contention window, vector"
vector 153 Scenario.node[32].wlan[0].radio radioMode:vector ETV
attr interpolationmode sample-hold
attr source radioModeChanged
attr title "Radio mode, vector"
vector 154 Scenario.node[32].wlan[0].radio radioChannel:vector ETV
attr interpolationmode sample-hold
attr source radioChannelChanged
attr title "Radio channel, vector"
vector 155 Scenario.node[32].wlan[0].radio receptionState:vector ETV
attr interpolationmode sample-hold
attr source receptionStateChanged
attr title "Radio reception state, vector"
vector 156 Scenario.node[32].wlan[0].mac.dcf.recoveryProcedure contentionWindowChanged:vector ETV
attr interpolationmode sample-hold
attr title "contention window, vector"
vector 157 Scenario.node[33].wlan[0].radio radioMode:vector ETV
attr interpolationmode sample-hold
attr source radioModeChanged
attr title "Radio mode, vector"
vector 158 Scenario.node[33].wlan[0].radio radioChannel:vector ETV
attr interpolationmode sample-hold
attr source radioChannelChanged
attr title "Radio channel, vector"
vector 159 Scenario.node[33].wlan[0].radio receptionState:vector ETV
attr interpolationmode sample-hold
attr source receptionStateChanged
attr title "Radio reception state, vector"
vector 160 Scenario.node[33].wlan[0].mac.dcf.recoveryProcedure contentionWindowChanged:vector ETV
attr interpolationmode sample-hold
attr title "contention window, vector"
vector 161 Scenario.node[34].wlan[0].radio radioMode:vector ETV
attr interpolationmode sample-hold
attr source radioModeChanged
attr title "Radio mode, vector"
vector 162 Scenario.node[34].wlan[0].radio radioChannel:vector ETV
attr interpolationmode sample-hold
attr source radioChannelChanged
attr title "Radio channel, vector"
vector 163 Scenario.node[34].wlan[0].radio receptionState:vector ETV
attr interpolationmode sample-hold
attr source receptionStateChanged
attr title "Radio reception state, vector"
vector 164 Scenario.node[34].wlan[0].mac.dcf.recoveryProcedure contentionWindowChanged:vector ETV
attr interpolationmode sample-hold
attr title "contention window, vector"
vector 165 Scenario.node[35].wlan[0].radio radioMode:vector ETV
attr interpolationmode sample-hold
attr source radioModeChanged
attr title "Radio mode, vector"
vector 166 Scenario.node[35].wlan[0].radio radioChannel:vector ETV
attr interpolationmode sample-hold
attr source radioChannelChanged
attr title "Radio channel, vector"
vector 167 Scenario.node[35].wlan[0].radio receptionState:vector ETV
attr interpolationmode sample-hold
attr source receptionStateChanged
attr title "Radio reception state, vector"
vector 168 Scenario.node[35].wlan[0].mac.dcf.recoveryProcedure contentionWindowChanged:vector ETV
attr interpolationmode sample-hold
attr title "contention window, vector"
vector 169 Scenario.node[36].wlan[0].radio radioMode:vector ETV
attr interpolationmode sample-hold
attr source radioModeChanged
attr title "Radio mode, vector"
vector 170 Scenario.node[36].wlan[0].radio radioChannel:vector ETV
attr interpolationmode sample-hold
attr source radioChannelChanged
attr title "Radio channel, vector"
vector 171 Scenario.node[36].wlan[0].radio receptionState:vector ETV
attr interpolationmode sample-hold
attr source receptionStateChanged
attr title "Radio reception state, vector"
vector 172 Scenario.node[36].wlan[0].mac.dcf.recoveryProcedure contentionWindowChanged:vector ETV
attr interpolationmode sample-hold
attr title "contention window, vector"
vector 173 Scenario.node[37].wlan[0].radio radioMode:vector ETV
attr interpolationmode sample-hold
attr source radioModeChanged
attr title "Radio mode, vector"
vector 174 Scenario.node[37].wlan[0].radio radioChannel:vector ETV
attr interpolationmode sample-hold
attr source radioChannelChanged
attr title "Radio channel, vector"
vector 175 Scenario.node[37].wlan[0].radio receptionState:vector ETV
attr interpolationmode sample-hold
attr source receptionStateChanged
attr title "Radio reception state, vector"
vector 176 Scenario.node[37].wlan[0].mac.dcf.recoveryProcedure contentionWindowChanged:vector ETV
attr interpolationmode sample-hold
attr title "contention window, vector"
vector 177 Scenario.node[38].wlan[0].radio radioMode:vector ETV
attr interpolationmode sample-hold
attr source radioModeChanged
attr title "Radio mode, vector"
vector 178 Scenario.node[38].wlan[0].radio radioChannel:vector ETV
attr interpolationmode sample-hold
attr source radioChannelChanged
attr title "Radio channel, vector"
vector 179 Scenario.node[38].wlan[0].radio receptionState:vector ETV
attr interpolationmode sample-hold
attr source receptionStateChanged
attr title "Radio reception state, vector"
vector 180 Scenario.node[38].wlan[0].mac.dcf.recoveryProcedure contentionWindowChanged:vector ETV
attr interpolationmode sample-hold
attr title "contention window, vector"
vector 181 Scenario.node[39].wlan[0].radio radioMode:vector ETV
attr interpolationmode sample-hold
attr source radioModeChanged
attr title "Radio mode, vector"
vector 182 Scenario.node[39].wlan[0].radio radioChannel:vector ETV
attr interpolationmode sample-hold
attr source radioChannelChanged
attr title "Radio channel, vector"
vector 183 Scenario.node[39].wlan[0].radio receptionState:vector ETV
attr interpolationmode sample-hold
attr source receptionStateChanged
attr title "Radio reception state, vector"
vector 184 Scenario.node[39].wlan[0].mac.dcf.recoveryProcedure contentionWindowChanged:vector ETV
attr interpolationmode sample-hold
attr title "contention window, vector"
vector 185 Scenario.node[40].wlan[0].radio radioMode:vector ETV
attr interpolationmode sample-hold
attr source radioModeChanged
attr title "Radio mode, vector"
vector 186 Scenario.node[40].wlan[0].radio radioChannel:vector ETV
attr interpolationmode sample-hold
attr source radioChannelChanged
attr title "Radio channel, vector"
vector 187 Scenario.node[40].wlan[0].radio receptionState:vector ETV
attr interpolationmode sample-hold
attr source receptionStateChanged
attr title "Radio reception state, vector"
vector 188 Scenario.node[40].wlan[0].mac.dcf.recoveryProcedure contentionWindowChanged:vector ETV
attr interpolationmode sample-hold
attr title "contention window, vector"
vector 189 Scenario.node[41].wlan[0].radio radioMode:vector ETV
attr interpolationmode sample-hold
attr source radioModeChanged
attr title "Radio mode, vector"
vector 190 Scenario.node[41].wlan[0].radio radioChannel:vector ETV
attr interpolationmode sample-hold
attr source radioChannelChanged
attr title "Radio channel, vector"
vector 191 Scenario.node[41].wlan[0].radio receptionState:vector ETV
attr interpolationmode sample-hold
attr source receptionStateChanged
attr title "Radio reception state, vector"
vector 192 Scenario.node[41].wlan[0].mac.dcf.recoveryProcedure contentionWindowChanged:vector ETV
attr interpolationmode sample-hold
attr title "contention window, vector"
vector 193 Scenario.node[42].wlan[0].radio radioMode:vector ETV
attr interpolationmode sample-hold
attr source radioModeChanged
attr title "Radio mode, vector"
vector 194 Scenario.node[42].wlan[0].radio radioChannel:vector ETV
attr interpolationmode sample-hold
attr source radioChannelChanged
attr title "Radio channel, vector"
vector 195 Scenario.node[42].wlan[0].radio receptionState:vector ETV
attr interpolationmode sample-hold
attr source receptionStateChanged
attr title "Radio reception state, vector"
vector 196 Scenario.node[42].wlan[0].mac.dcf.recoveryProcedure contentionWindowChanged:vector ETV
attr interpolationmode sample-hold
attr title "contention window, vector"
vector 197 Scenario.node[43].wlan[0].radio radioMode:vector ETV
attr interpolationmode sample-hold
attr source radioModeChanged
attr title "Radio mode, vector"
vector 198 Scenario.node[43].wlan[0].radio radioChannel:vector ETV
attr interpolationmode sample-hold
attr source radioChannelChanged
attr title "Radio channel, vector"
vector 199 Scenario.node[43].wlan[0].radio receptionState:vector ETV
attr interpolationmode sample-hold
attr source receptionStateChanged
attr title "Radio reception state, vector"
vector 200 Scenario.node[43].wlan[0].mac.dcf.recoveryProcedure contentionWindowChanged:vector ETV
attr interpolationmode sample-hold
attr title "contention window, vector"
vector 201 Scenario.node[44].wlan[0].radio radioMode:vector ETV
attr interpolationmode sample-hold
attr source radioModeChanged
attr title "Radio mode, vector"
vector 202 Scenario.node[44].wlan[0].radio radioChannel:vector ETV
attr interpolationmode sample-hold
attr source radioChannelChanged
attr title "Radio channel, vector"
vector 203 Scenario.node[44].wlan[0].radio receptionState:vector ETV
attr interpolationmode sample-hold
attr source receptionStateChanged
attr title "Radio reception state, vector"
vector 204 Scenario.node[44].wlan[0].mac.dcf.recoveryProcedure contentionWindowChanged:vector ETV
attr interpolationmode sample-hold
attr title "contention window, vector"
vector 205 Scenario.node[45].wlan[0].radio radioMode:vector ETV
attr interpolationmode sample-hold
attr source radioModeChanged
attr title "Radio mode, vector"
vector 206 Scenario.node[45].wlan[0].radio radioChannel:vector ETV
attr interpolationmode sample-hold
attr source radioChannelChanged
attr title "Radio channel, vector"
vector 207 Scenario.node[45].wlan[0].radio receptionState:vector ETV
attr interpolationmode sample-hold
attr source receptionStateChanged
attr title "Radio reception state, vector"
vector 208 Scenario.node[45].wlan[0].mac.dcf.recoveryProcedure contentionWindowChanged:vector ETV
attr interpolationmode sample-hold
attr title "contention window, vector"
vector 209 Scenario.node[46].wlan[0].radio radioMode:vector ETV
attr interpolationmode sample-hold
attr source radioModeChanged
attr title "Radio mode, vector"
vector 210 Scenario.node[46].wlan[0].radio radioChannel:vector ETV
attr interpolationmode sample-hold
attr source radioChannelChanged
attr title "Radio channel, vector"
vector 211 Scenario.node[46].wlan[0].radio receptionState:vector ETV
attr interpolationmode sample-hold
attr source receptionStateChanged
attr title "Radio reception state, vector"
vector 212 Scenario.node[46].wlan[0].mac.dcf.recoveryProcedure contentionWindowChanged:vector ETV
attr interpolationmode sample-hold
attr title "contention window, vector"
vector 213 Scenario.node[47].wlan[0].radio radioMode:vector ETV
attr interpolationmode sample-hold
attr source radioModeChanged
attr title "Radio mode, vector"
vector 214 Scenario.node[47].wlan[0].radio radioChannel:vector ETV
attr interpolationmode sample-hold
attr source radioChannelChanged
attr title "Radio channel, vector"
vector 215 Scenario.node[47].wlan[0].radio receptionState:vector ETV
attr interpolationmode sample-hold
attr source receptionStateChanged
attr title "Radio reception state, vector"
vector 216 Scenario.node[47].wlan[0].mac.dcf.recoveryProcedure contentionWindowChanged:vector ETV
attr interpolationmode sample-hold
attr title "contention window, vector"
vector 217 Scenario.node[48].wlan[0].radio radioMode:vector ETV
attr interpolationmode sample-hold
attr source radioModeChanged
attr title "Radio mode, vector"
vector 218 Scenario.node[48].wlan[0].radio radioChannel:vector ETV
attr interpolationmode sample-hold
attr source radioChannelChanged
attr title "Radio channel, vector"
vector 219 Scenario.node[48].wlan[0].radio receptionState:vector ETV
attr interpolationmode sample-hold
attr source receptionStateChanged
attr title "Radio reception state, vector"
vector 220 Scenario.node[48].wlan[0].mac.dcf.recoveryProcedure contentionWindowChanged:vector ETV
attr interpolationmode sample-hold
attr title "contention window, vector"
vector 221 Scenario.node[49].wlan[0].radio radioMode:vector ETV
attr interpolationmode sample-hold
attr source radioModeChanged
attr title "Radio mode, vector"
vector 222 Scenario.node[49].wlan[0].radio radioChannel:vector ETV
attr interpolationmode sample-hold
attr source radioChannelChanged
attr title "Radio channel, vector"
vector 223 Scenario.node[49].wlan[0].radio receptionState:vector ETV
attr interpolationmode sample-hold
attr source receptionStateChanged
attr title "Radio reception state, vector"
vector 224 Scenario.node[49].wlan[0].mac.dcf.recoveryProcedure contentionWindowChanged:vector ETV
attr interpolationmode sample-hold
attr title "contention window, vector"
vector 225 Scenario.node[50].wlan[0].radio radioMode:vector ETV
attr interpolationmode sample-hold
attr source radioModeChanged
attr title "Radio mode, vector"
vector 226 Scenario.node[50].wlan[0].radio radioChannel:vector ETV
attr interpolationmode sample-hold
attr source radioChannelChanged
attr title "Radio channel, vector"
vector 227 Scenario.node[50].wlan[0].radio receptionState:vector ETV
attr interpolationmode sample-hold
attr source receptionStateChanged
attr title "Radio reception state, vector"
vector 228 Scenario.node[50].wlan[0].mac.dcf.recoveryProcedure contentionWindowChanged:vector ETV
attr interpolationmode sample-hold
attr title "contention window, vector"
vector 229 Scenario.node[51].wlan[0].radio radioMode:vector ETV
attr interpolationmode sample-hold
attr source radioModeChanged
attr title "Radio mode, vector"
vector 230 Scenario.node[51].wlan[0].radio radioChannel:vector ETV
attr interpolationmode sample-hold
attr source radioChannelChanged
attr title "Radio channel, vector"
vector 231 Scenario.node[51].wlan[0].radio receptionState:vector ETV
attr interpolationmode sample-hold
attr source receptionStateChanged
attr title "Radio reception state, vector"
vector 232 Scenario.node[51].wlan[0].mac.dcf.recoveryProcedure contentionWindowChanged:vector ETV
attr interpolationmode sample-hold
attr title "contention window, vector"
vector 233 Scenario.node[52].wlan[0].radio radioMode:vector ETV
attr interpolationmode sample-hold
attr source radioModeChanged
attr title "Radio mode, vector"
vector 234 Scenario.node[52].wlan[0].radio radioChannel:vector ETV
attr interpolationmode sample-hold
attr source radioChannelChanged
attr title "Radio channel, vector"
vector 235 Scenario.node[52].wlan[0].radio receptionState:vector ETV
attr interpolationmode sample-hold
attr source receptionStateChanged
attr title "Radio reception state, vector"
vector 236 Scenario.node[52].wlan[0].mac.dcf.recoveryProcedure contentionWindowChanged:vector ETV
attr interpolationmode sample-hold
attr title "contention window, vector"
vector 237 Scenario.node[53].wlan[0].radio radioMode:vector ETV
attr interpolationmode sample-hold
attr source radioModeChanged
attr title "Radio mode, vector"
vector 238 Scenario.node[53].wlan[0].radio radioChannel:vector ETV
attr interpolationmode sample-hold
attr source radioChannelChanged
attr title "Radio channel, vector"
vector 239 Scenario.node[53].wlan[0].radio receptionState:vector ETV
attr interpolationmode sample-hold
attr source receptionStateChanged
attr title "Radio reception state, vector"
vector 240 Scenario.node[53].wlan[0].mac.dcf.recoveryProcedure contentionWindowChanged:vector ETV
attr interpolationmode sample-hold
attr title "contention window, vector"
vector 241 Scenario.node[54].wlan[0].radio radioMode:vector ETV
attr interpolationmode sample-hold
attr source radioModeChanged
attr title "Radio mode, vector"
vector 242 Scenario.node[54].wlan[0].radio radioChannel:vector ETV
attr interpolationmode sample-hold
attr source radioChannelChanged
attr title "Radio channel, vector"
vector 243 Scenario.node[54].wlan[0].radio receptionState:vector ETV
attr interpolationmode sample-hold
attr source receptionStateChanged
attr title "Radio reception state, vector"
vector 244 Scenario.node[54].wlan[0].mac.dcf.recoveryProcedure contentionWindowChanged:vector ETV
attr interpolationmode sample-hold
attr title "contention window, vector"
vector 245 Scenario.node[55].wlan[0].radio radioMode:vector ETV
attr interpolationmode sample-hold
attr source radioModeChanged
attr title "Radio mode, vector"
vector 246 Scenario.node[55].wlan[0].radio radioChannel:vector ETV
attr interpolationmode sample-hold
attr source radioChannelChanged
attr title "Radio channel, vector"
vector 247 Scenario.node[55].wlan[0].radio receptionState:vector ETV
attr interpolationmode sample-hold
attr source receptionStateChanged
attr title "Radio reception state, vector"
vector 248 Scenario.node[55].wlan[0].mac.dcf.recoveryProcedure contentionWindowChanged:vector ETV
attr interpolationmode sample-hold
attr title "contention window, vector"
vector 249 Scenario.node[56].wlan[0].radio radioMode:vector ETV
attr interpolationmode sample-hold
attr source radioModeChanged
attr title "Radio mode, vector"
vector 250 Scenario.node[56].wlan[0].radio radioChannel:vector ETV
attr interpolationmode sample-hold
attr source radioChannelChanged
attr title "Radio channel, vector"
vector 251 Scenario.node[56].wlan[0].radio receptionState:vector ETV
attr interpolationmode sample-hold
attr source receptionStateChanged
attr title "Radio reception state, vector"
vector 252 Scenario.node[56].wlan[0].mac.dcf.recoveryProcedure contentionWindowChanged:vector ETV
attr interpolationmode sample-hold
attr title "contention window, vector"
vector 253 Scenario.node[57].wlan[0].radio radioMode:vector ETV
attr interpolationmode sample-hold
attr source radioModeChanged
attr title "Radio mode, vector"
vector 254 Scenario.node[57].wlan[0].radio radioChannel:vector ETV
attr interpolationmode sample-hold
attr source radioChannelChanged
attr title "Radio channel, vector"
vector 255 Scenario.node[57].wlan[0].radio receptionState:vector ETV
attr interpolationmode sample-hold
attr source receptionStateChanged
attr title "Radio reception state, vector"
vector 256 Scenario.node[57].wlan[0].mac.dcf.recoveryProcedure contentionWindowChanged:vector ETV
attr interpolationmode sample-hold
attr title "contention window, vector"
vector 257 Scenario.node[58].wlan[0].radio radioMode:vector ETV
attr interpolationmode sample-hold
attr source radioModeChanged
attr title "Radio mode, vector"
vector 258 Scenario.node[58].wlan[0].radio radioChannel:vector ETV
attr interpolationmode sample-hold
attr source radioChannelChanged
attr title "Radio channel, vector"
vector 259 Scenario.node[58].wlan[0].radio receptionState:vector ETV
attr interpolationmode sample-hold
attr source receptionStateChanged
attr title "Radio reception state, vector"
vector 260 Scenario.node[58].wlan[0].mac.dcf.recoveryProcedure contentionWindowChanged:vector ETV
attr interpolationmode sample-hold
attr title "contention window, vector"
vector 261 Scenario.node[59].wlan[0].radio radioMode:vector ETV
attr interpolationmode sample-hold
attr source radioModeChanged
attr title "Radio mode, vector"
vector 262 Scenario.node[59].wlan[0].radio radioChannel:vector ETV
attr interpolationmode sample-hold
attr source radioChannelChanged
attr title "Radio channel, vector"
vector 263 Scenario.node[59].wlan[0].radio receptionState:vector ETV
attr interpolationmode sample-hold
attr source receptionStateChanged
attr title "Radio reception state, vector"
vector 264 Scenario.node[59].wlan[0].mac.dcf.recoveryProcedure contentionWindowChanged:vector ETV
attr interpolationmode sample-hold
attr title "contention window, vector"
vector 265 Scenario.node[60].wlan[0].radio radioMode:vector ETV
attr interpolationmode sample-hold
attr source radioModeChanged
attr title "Radio mode, vector"
vector 266 Scenario.node[60].wlan[0].radio radioChannel:vector ETV
attr interpolationmode sample-hold
attr source radioChannelChanged
attr title "Radio channel, vector"
vector 267 Scenario.node[60].wlan[0].radio receptionState:vector ETV
attr interpolationmode sample-hold
attr source receptionStateChanged
attr title "Radio reception state, vector"
vector 268 Scenario.node[60].wlan[0].mac.dcf.recoveryProcedure contentionWindowChanged:vector ETV
attr interpolationmode sample-hold
attr title "contention window, vector"
vector 269 Scenario.node[2].app[0] throughput:vector ETV
attr source throughput(packetReceived)
attr title "throughput, vector"
attr unit bps
11	48450 13 12 12 2.5 2.5 1 15 15 15 225
9	48463 11 12 12 2.5 2.5 1 3 3 3 9
8	48474 33 12 12 2.5 2.5 3 0 2 2 4
10	48507 12 12 12 2.5 2.5 1 1 1 1 1
269	48519 13148 447 447 0.1 89.5 895 0 0 0 0
vector 270 Scenario.node[61].wlan[0].radio radioMode:vector ETV
attr interpolationmode sample-hold
attr source radioModeChanged
attr title "Radio mode, vector"
vector 271 Scenario.node[61].wlan[0].radio radioChannel:vector ETV
attr interpolationmode sample-hold
attr source radioChannelChanged
attr title "Radio channel, vector"
vector 272 Scenario.node[61].wlan[0].radio receptionState:vector ETV
attr interpolationmode sample-hold
attr source receptionStateChanged
attr title "Radio reception state, vector"
vector 273 Scenario.node[61].wlan[0].mac.dcf.recoveryProcedure contentionWindowChanged:vector ETV
attr interpolationmode sample-hold
attr title "contention window, vector"
vector 274 Scenario.node[62].wlan[0].radio radioMode:vector ETV
attr interpolationmode sample-hold
attr source radioModeChanged
attr title "Radio mode, vector"
vector 275 Scenario.node[62].wlan[0].radio radioChannel:vector ETV
attr interpolationmode sample-hold
attr source radioChannelChanged
attr title "Radio channel, vector"
vector 276 Scenario.node[62].wlan[0].radio receptionState:vector ETV
attr interpolationmode sample-hold
attr source receptionStateChanged
attr title "Radio reception state, vector"
vector 277 Scenario.node[62].wlan[0].mac.dcf.recoveryProcedure contentionWindowChanged:vector ETV
attr interpolationmode sample-hold
attr title "contention window, vector"
vector 278 Scenario.node[63].wlan[0].radio radioMode:vector ETV
attr interpolationmode sample-hold
attr source radioModeChanged
attr title "Radio mode, vector"
vector 279 Scenario.node[63].wlan[0].radio radioChannel:vector ETV
attr interpolationmode sample-hold
attr source radioChannelChanged
attr title "Radio channel, vector"
vector 280 Scenario.node[63].wlan[0].radio receptionState:vector ETV
attr interpolationmode sample-hold
attr source receptionStateChanged
attr title "Radio reception state, vector"
vector 281 Scenario.node[63].wlan[0].mac.dcf.recoveryProcedure contentionWindowChanged:vector ETV
attr interpolationmode sample-hold
attr title "contention window, vector"
vector 282 Scenario.node[64].wlan[0].radio radioMode:vector ETV
attr interpolationmode sample-hold
attr source radioModeChanged
attr title "Radio mode, vector"
vector 283 Scenario.node[64].wlan[0].radio radioChannel:vector ETV
attr interpolationmode sample-hold
attr source radioChannelChanged
attr title "Radio channel, vector"
vector 284 Scenario.node[64].wlan[0].radio receptionState:vector ETV
attr interpolationmode sample-hold
attr source receptionStateChanged
attr title "Radio reception state, vector"
vector 285 Scenario.node[64].wlan[0].mac.dcf.recoveryProcedure contentionWindowChanged:vector ETV
attr interpolationmode sample-hold
attr title "contention window, vector"
vector 286 Scenario.node[65].wlan[0].radio radioMode:vector ETV
attr interpolationmode sample-hold
attr source radioModeChanged
attr title "Radio mode, vector"
vector 287 Scenario.node[65].wlan[0].radio radioChannel:vector ETV
attr interpolationmode sample-hold
attr source radioChannelChanged
attr title "Radio channel, vector"
vector 288 Scenario.node[65].wlan[0].radio receptionState:vector ETV
attr interpolationmode sample-hold
attr source receptionStateChanged
attr title "Radio reception state, vector"
vector 289 Scenario.node[65].wlan[0].mac.dcf.recoveryProcedure contentionWindowChanged:vector ETV
attr interpolationmode sample-hold
attr title "contention window, vector"
vector 290 Scenario.node[11].app[0] throughput:vector ETV
attr source throughput(packetReceived)
attr title "throughput, vector"
attr unit bps
47	65220 14 67 67 16.5 16.5 1 15 15 15 225
45	65234 13 67 67 16.5 16.5 1 3 3 3 9
44	65247 39 67 67 16.5 16.5 3 0 2 2 4
46	65286 13 67 67 16.5 16.5 1 1 1 1 1
290	65299 14184 476 476 0.1 96.5 965 0 0 0 0
vector 291 Scenario.node[66].wlan[0].radio radioMode:vector ETV
attr interpolationmode sample-hold
attr source radioModeChanged
attr title "Radio mode, vector"
vector 292 Scenario.node[66].wlan[0].radio radioChannel:vector ETV
attr interpolationmode sample-hold
attr source radioChannelChanged
attr title "Radio channel, vector"
vector 293 Scenario.node[66].wlan[0].radio receptionState:vector ETV
attr interpolationmode sample-hold
attr source receptionStateChanged
attr title "Radio reception state, vector"
vector 294 Scenario.node[66].wlan[0].mac.dcf.recoveryProcedure contentionWindowChanged:vector ETV
attr interpolationmode sample-hold
attr title "contention window, vector"
vector 295 Scenario.node[67].wlan[0].radio radioMode:vector ETV
attr interpolationmode sample-hold
attr source radioModeChanged
attr title "Radio mode, vector"
vector 296 Scenario.node[67].wlan[0].radio radioChannel:vector ETV
attr interpolationmode sample-hold
attr source radioChannelChanged
attr title "Radio channel, vector"
vector 297 Scenario.node[67].wlan[0].radio receptionState:vector ETV
attr interpolationmode sample-hold
attr source receptionStateChanged
attr title "Radio reception state, vector"
vector 298 Scenario.node[67].wlan[0].mac.dcf.recoveryProcedure contentionWindowChanged:vector ETV
attr interpolationmode sample-hold
attr title "contention window, vector"
vector 299 Scenario.node[68].wlan[0].radio radioMode:vector ETV
attr interpolationmode sample-hold
attr source radioModeChanged
attr title "Radio mode, vector"
vector 300 Scenario.node[68].wlan[0].radio radioChannel:vector ETV
attr interpolationmode sample-hold
attr source radioChannelChanged
attr title "Radio channel, vector"
vector 301 Scenario.node[68].wlan[0].radio receptionState:vector ETV
attr interpolationmode sample-hold
attr source receptionStateChanged
attr title "Radio reception state, vector"
vector 302 Scenario.node[68].wlan[0].mac.dcf.recoveryProcedure contentionWindowChanged:vector ETV
attr interpolationmode sample-hold
attr title "contention window, vector"
vector 303 Scenario.node[69].wlan[0].radio radioMode:vector ETV
attr interpolationmode sample-hold
attr source radioModeChanged
attr title "Radio mode, vector"
vector 304 Scenario.node[69].wlan[0].radio radioChannel:vector ETV
attr interpolationmode sample-hold
attr source radioChannelChanged
attr title "Radio channel, vector"
vector 305 Scenario.node[69].wlan[0].radio receptionState:vector ETV
attr interpolationmode sample-hold
attr source receptionStateChanged
attr title "Radio reception state, vector"
vector 306 Scenario.node[69].wlan[0].mac.dcf.recoveryProcedure contentionWindowChanged:vector ETV
attr interpolationmode sample-hold
attr title "contention window, vector"
vector 307 Scenario.node[70].wlan[0].radio radioMode:vector ETV
attr interpolationmode sample-hold
attr source radioModeChanged
attr title "Radio mode, vector"
vector 308 Scenario.node[70].wlan[0].radio radioChannel:vector ETV
attr interpolationmode sample-hold
attr source radioChannelChanged
attr title "Radio channel, vector"
vector 309 Scenario.node[70].wlan[0].radio receptionState:vector ETV
attr interpolationmode sample-hold
attr source receptionStateChanged
attr title "Radio reception state, vector"
vector 310 Scenario.node[70].wlan[0].mac.dcf.recoveryProcedure contentionWindowChanged:vector ETV
attr interpolationmode sample-hold
attr title "contention window, vector"
vector 311 Scenario.node[71].wlan[0].radio radioMode:vector ETV
attr interpolationmode sample-hold
attr source radioModeChanged
attr title "Radio mode, vector"
vector 312 Scenario.node[71].wlan[0].radio radioChannel:vector ETV
attr interpolationmode sample-hold
attr source radioChannelChanged
attr title "Radio channel, vector"
vector 313 Scenario.node[71].wlan[0].radio receptionState:vector ETV
attr interpolationmode sample-hold
attr source receptionStateChanged
attr title "Radio reception state, vector"
vector 314 Scenario.node[71].wlan[0].mac.dcf.recoveryProcedure contentionWindowChanged:vector ETV
attr interpolationmode sample-hold
attr title "contention window, vector"
vector 315 Scenario.node[72].wlan[0].radio radioMode:vector ETV
attr interpolationmode sample-hold
attr source radioModeChanged
attr title "Radio mode, vector"
vector 316 Scenario.node[72].wlan[0].radio radioChannel:vector ETV
attr interpolationmode sample-hold
attr source radioChannelChanged
attr title "Radio channel, vector"
vector 317 Scenario.node[72].wlan[0].radio receptionState:vector ETV
attr interpolationmode sample-hold
attr source receptionStateChanged
attr title "Radio reception state, vector"
vector 318 Scenario.node[72].wlan[0].mac.dcf.recoveryProcedure contentionWindowChanged:vector ETV
attr interpolationmode sample-hold
attr title "contention window, vector"
vector 319 Scenario.node[73].wlan[0].radio radioMode:vector ETV
attr interpolationmode sample-hold
attr source radioModeChanged
attr title "Radio mode, vector"
vector 320 Scenario.node[73].wlan[0].radio radioChannel:vector ETV
attr interpolationmode sample-hold
attr source radioChannelChanged
attr title "Radio channel, vector"
vector 321 Scenario.node[73].wlan[0].radio receptionState:vector ETV
attr interpolationmode sample-hold
attr source receptionStateChanged
attr title "Radio reception state, vector"
vector 322 Scenario.node[73].wlan[0].mac.dcf.recoveryProcedure contentionWindowChanged:vector ETV
attr interpolationmode sample-hold
attr title "contention window, vector"
vector 323 Scenario.node[74].wlan[0].radio radioMode:vector ETV
attr interpolationmode sample-hold
attr source radioModeChanged
attr title "Radio mode, vector"
vector 324 Scenario.node[74].wlan[0].radio radioChannel:vector ETV
attr interpolationmode sample-hold
attr source radioChannelChanged
attr title "Radio channel, vector"
vector 325 Scenario.node[74].wlan[0].radio receptionState:vector ETV
attr interpolationmode sample-hold
attr source receptionStateChanged
attr title "Radio reception state, vector"
vector 326 Scenario.node[74].wlan[0].mac.dcf.recoveryProcedure contentionWindowChanged:vector ETV
attr interpolationmode sample-hold
attr title "contention window, vector"
vector 327 Scenario.node[75].wlan[0].radio radioMode:vector ETV
attr interpolationmode sample-hold
attr source radioModeChanged
attr title "Radio mode, vector"
vector 328 Scenario.node[75].wlan[0].radio radioChannel:vector ETV
attr interpolationmode sample-hold
attr source radioChannelChanged
attr title "Radio channel, vector"
vector 329 Scenario.node[75].wlan[0].radio receptionState:vector ETV
attr interpolationmode sample-hold
attr source receptionStateChanged
attr title "Radio reception state, vector"
vector 330 Scenario.node[75].wlan[0].mac.dcf.recoveryProcedure contentionWindowChanged:vector ETV
attr interpolationmode sample-hold
attr title "contention window, vector"
vector 331 Scenario.node[76].wlan[0].radio radioMode:vector ETV
attr interpolationmode sample-hold
attr source radioModeChanged
attr title "Radio mode, vector"
vector 332 Scenario.node[76].wlan[0].radio radioChannel:vector ETV
attr interpolationmode sample-hold
attr source radioChannelChanged
attr title "Radio channel, vector"
vector 333 Scenario.node[76].wlan[0].radio receptionState:vector ETV
attr interpolationmode sample-hold
attr source receptionStateChanged
attr title "Radio reception state, vector"
vector 334 Scenario.node[76].wlan[0].mac.dcf.recoveryProcedure contentionWindowChanged:vector ETV
attr interpolationmode sample-hold
attr title "contention window, vector"
vector 335 Scenario.node[77].wlan[0].radio radioMode:vector ETV
attr interpolationmode sample-hold
attr source radioModeChanged
attr title "Radio mode, vector"
vector 336 Scenario.node[77].wlan[0].radio radioChannel:vector ETV
attr interpolationmode sample-hold
attr source radioChannelChanged
attr title "Radio channel, vector"
vector 337 Scenario.node[77].wlan[0].radio receptionState:vector ETV
attr interpolationmode sample-hold
attr source receptionStateChanged
attr title "Radio reception state, vector"
vector 338 Scenario.node[77].wlan[0].mac.dcf.recoveryProcedure contentionWindowChanged:vector ETV
attr interpolationmode sample-hold
attr title "contention window, vector"
vector 339 Scenario.node[78].wlan[0].radio radioMode:vector ETV
attr interpolationmode sample-hold
attr source radioModeChanged
attr title "Radio mode, vector"
vector 340 Scenario.node[78].wlan[0].radio radioChannel:vector ETV
attr interpolationmode sample-hold
attr source radioChannelChanged
attr title "Radio channel, vector"
vector 341 Scenario.node[78].wlan[0].radio receptionState:vector ETV
attr interpolationmode sample-hold
attr source receptionStateChanged
attr title "Radio reception state, vector"
vector 342 Scenario.node[78].wlan[0].mac.dcf.recoveryProcedure contentionWindowChanged:vector ETV
attr interpolationmode sample-hold
attr title "contention window, vector"
vector 343 Scenario.node[79].wlan[0].radio radioMode:vector ETV
attr interpolationmode sample-hold
attr source radioModeChanged
attr title "Radio mode, vector"
vector 344 Scenario.node[79].wlan[0].radio radioChannel:vector ETV
attr interpolationmode sample-hold
attr source radioChannelChanged
attr title "Radio channel, vector"
vector 345 Scenario.node[79].wlan[0].radio receptionState:vector ETV
attr interpolationmode sample-hold
attr source receptionStateChanged
attr title "Radio reception state, vector"
vector 346 Scenario.node[79].wlan[0].mac.dcf.recoveryProcedure contentionWindowChanged:vector ETV
attr interpolationmode sample-hold
attr title "contention window, vector"
vector 347 Scenario.node[80].wlan[0].radio radioMode:vector ETV
attr interpolationmode sample-hold
attr source radioModeChanged
attr title "Radio mode, vector"
vector 348 Scenario.node[80].wlan[0].radio radioChannel:vector ETV
attr interpolationmode sample-hold
attr source radioChannelChanged
attr title "Radio channel, vector"
vector 349 Scenario.node[80].wlan[0].radio receptionState:vector ETV
attr interpolationmode sample-hold
attr source receptionStateChanged
attr title "Radio reception state, vector"
vector 350 Scenario.node[80].wlan[0].mac.dcf.recoveryProcedure contentionWindowChanged:vector ETV
attr interpolationmode sample-hold
attr title "contention window, vector"
vector 351 Scenario.node[81].wlan[0].radio radioMode:vector ETV
attr interpolationmode sample-hold
attr source radioModeChanged
attr title "Radio mode, vector"
vector 352 Scenario.node[81].wlan[0].radio radioChannel:vector ETV
attr interpolationmode sample-hold
attr source radioChannelChanged
attr title "Radio channel, vector"
vector 353 Scenario.node[81].wlan[0].radio receptionState:vector ETV
attr interpolationmode sample-hold
attr source receptionStateChanged
attr title "Radio reception state, vector"
vector 354 Scenario.node[81].wlan[0].mac.dcf.recoveryProcedure contentionWindowChanged:vector ETV
attr interpolationmode sample-hold
attr title "contention window, vector"
vector 355 Scenario.node[82].wlan[0].radio radioMode:vector ETV
attr interpolationmode sample-hold
attr source radioModeChanged
attr title "Radio mode, vector"
vector 356 Scenario.node[82].wlan[0].radio radioChannel:vector ETV
attr interpolationmode sample-hold
attr source radioChannelChanged
attr title "Radio channel, vector"
vector 357 Scenario.node[82].wlan[0].radio receptionState:vector ETV
attr interpolationmode sample-hold
attr source receptionStateChanged
attr title "Radio reception state, vector"
vector 358 Scenario.node[82].wlan[0].mac.dcf.recoveryProcedure contentionWindowChanged:vector ETV
attr interpolationmode sample-hold
attr title "contention window, vector"
vector 359 Scenario.node[83].wlan[0].radio radioMode:vector ETV
attr interpolationmode sample-hold
attr source radioModeChanged
attr title "Radio mode, vector"
vector 360 Scenario.node[83].wlan[0].radio radioChannel:vector ETV
attr interpolationmode sample-hold
attr source radioChannelChanged
attr title "Radio channel, vector"
vector 361 Scenario.node[83].wlan[0].radio receptionState:vector ETV
attr interpolationmode sample-hold
attr source receptionStateChanged
attr title "Radio reception state, vector"
vector 362 Scenario.node[83].wlan[0].mac.dcf.recoveryProcedure contentionWindowChanged:vector ETV
attr interpolationmode sample-hold
attr title "contention window, vector"
vector 363 Scenario.node[14].app[0] throughput:vector ETV
attr source throughput(packetReceived)
attr title "throughput, vector"
attr unit bps
84	91902 15 169 169 21.5 21.5 1 15 15 15 225
82	91917 14 169 169 21.5 21.5 1 3 3 3 9
81	91931 42 169 169 21.5 21.5 3 0 2 2 4
83	91973 14 169 169 21.5 21.5 1 1 1 1 1
363	91987 18574 586 586 0.1 124.5 1245 0 0 0 0
vector 364 Scenario.node[84].wlan[0].radio radioMode:vector ETV
attr interpolationmode sample-hold
attr source radioModeChanged
attr title "Radio mode, vector"
vector 365 Scenario.node[84].wlan[0].radio radioChannel:vector ETV
attr interpolationmode sample-hold
attr source radioChannelChanged
attr title "Radio channel, vector"
vector 366 Scenario.node[84].wlan[0].radio receptionState:vector ETV
attr interpolationmode sample-hold
attr source receptionStateChanged
attr title "Radio reception state, vector"
vector 367 Scenario.node[84].wlan[0].mac.dcf.recoveryProcedure contentionWindowChanged:vector ETV
attr interpolationmode sample-hold
attr title "contention window, vector"
vector 368 Scenario.node[85].wlan[0].radio radioMode:vector ETV
attr interpolationmode sample-hold
attr source radioModeChanged
attr title "Radio mode, vector"
vector 369 Scenario.node[85].wlan[0].radio radioChannel:vector ETV
attr interpolationmode sample-hold
attr source radioChannelChanged
attr title "Radio channel, vector"
vector 370 Scenario.node[85].wlan[0].radio receptionState:vector ETV
attr interpolationmode sample-hold
attr source receptionStateChanged
attr title "Radio reception state, vector"
vector 371 Scenario.node[85].wlan[0].mac.dcf.recoveryProcedure contentionWindowChanged:vector ETV
attr interpolationmode sample-hold
attr title "contention window, vector"
vector 372 Scenario.node[86].wlan[0].radio radioMode:vector ETV
attr interpolationmode sample-hold
attr source radioModeChanged
attr title "Radio mode, vector"
vector 373 Scenario.node[86].wlan[0].radio radioChannel:vector ETV
attr interpolationmode sample-hold
attr source radioChannelChanged
attr title "Radio channel, vector"
vector 374 Scenario.node[86].wlan[0].radio receptionState:vector ETV
attr interpolationmode sample-hold
attr source receptionStateChanged
attr title "Radio reception state, vector"
vector 375 Scenario.node[86].wlan[0].mac.dcf.recoveryProcedure contentionWindowChanged:vector ETV
attr interpolationmode sample-hold
attr title "contention window, vector"
vector 376 Scenario.node[87].wlan[0].radio radioMode:vector ETV
attr interpolationmode sample-hold
attr source radioModeChanged
attr title "Radio mode, vector"
vector 377 Scenario.node[87].wlan[0].radio radioChannel:vector ETV
attr interpolationmode sample-hold
attr source radioChannelChanged
attr title "Radio channel, vector"
vector 378 Scenario.node[87].wlan[0].radio receptionState:vector ETV
attr interpolationmode sample-hold
attr source receptionStateChanged
attr title "Radio reception state, vector"
vector 379 Scenario.node[87].wlan[0].mac.dcf.recoveryProcedure contentionWindowChanged:vector ETV
attr interpolationmode sample-hold
attr title "contention window, vector"
vector 380 Scenario.node[88].wlan[0].radio radioMode:vector ETV
attr interpolationmode sample-hold
attr source radioModeChanged
attr title "Radio mode, vector"
vector 381 Scenario.node[88].wlan[0].radio radioChannel:vector ETV
attr interpolationmode sample-hold
attr source radioChannelChanged
attr title "Radio channel, vector"
vector 382 Scenario.node[88].wlan[0].radio receptionState:vector ETV
attr interpolationmode sample-hold
attr source receptionStateChanged
attr title "Radio reception state, vector"
vector 383 Scenario.node[88].wlan[0].mac.dcf.recoveryProcedure contentionWindowChanged:vector ETV
attr interpolationmode sample-hold
attr title "contention window, vector"
vector 384 Scenario.node[18].app[0] throughput:vector ETV
attr source throughput(packetReceived)
attr title "throughput, vector"
attr unit bps
100	114114 16 191 191 26.5 26.5 1 15 15 15 225
98	114130 14 191 191 26.5 26.5 1 3 3 3 9
97	114144 42 191 191 26.5 26.5 3 0 2 2 4
99	114186 14 191 191 26.5 26.5 1 1 1 1 1
384	114200 19680 615 615 0.1 131.5 1315 0 0 0 0
vector 385 Scenario.node[89].wlan[0].radio radioMode:vector ETV
attr interpolationmode sample-hold
attr source radioModeChanged
attr title "Radio mode, vector"
vector 386 Scenario.node[89].wlan[0].radio radioChannel:vector ETV
attr interpolationmode sample-hold
attr source radioChannelChanged
attr title "Radio channel, vector"
vector 387 Scenario.node[89].wlan[0].radio receptionState:vector ETV
attr interpolationmode sample-hold
attr source receptionStateChanged
attr title "Radio reception state, vector"
vector 388 Scenario.node[89].wlan[0].mac.dcf.recoveryProcedure contentionWindowChanged:vector ETV
attr interpolationmode sample-hold
attr title "contention window, vector"
vector 389 Scenario.node[90].wlan[0].radio radioMode:vector ETV
attr interpolationmode sample-hold
attr source radioModeChanged
attr title "Radio mode, vector"
vector 390 Scenario.node[90].wlan[0].radio radioChannel:vector ETV
attr interpolationmode sample-hold
attr source radioChannelChanged
attr title "Radio channel, vector"
vector 391 Scenario.node[90].wlan[0].radio receptionState:vector ETV
attr interpolationmode sample-hold
attr source receptionStateChanged
attr title "Radio reception state, vector"
vector 392 Scenario.node[90].wlan[0].mac.dcf.recoveryProcedure contentionWindowChanged:vector ETV
attr interpolationmode sample-hold
attr title "contention window, vector"
vector 393 Scenario.node[91].wlan[0].radio radioMode:vector ETV
attr interpolationmode sample-hold
attr source radioModeChanged
attr title "Radio mode, vector"
vector 394 Scenario.node[91].wlan[0].radio radioChannel:vector ETV
attr interpolationmode sample-hold
attr source radioChannelChanged
attr title "Radio channel, vector"
vector 395 Scenario.node[91].wlan[0].radio receptionState:vector ETV
attr interpolationmode sample-hold
attr source receptionStateChanged
attr title "Radio reception state, vector"
vector 396 Scenario.node[91].wlan[0].mac.dcf.recoveryProcedure contentionWindowChanged:vector ETV
attr interpolationmode sample-hold
attr title "contention window, vector"
vector 397 Scenario.node[92].wlan[0].radio radioMode:vector ETV
attr interpolationmode sample-hold
attr source radioModeChanged
attr title "Radio mode, vector"
vector 398 Scenario.node[92].wlan[0].radio radioChannel:vector ETV
attr interpolationmode sample-hold
attr source radioChannelChanged
attr title "Radio channel, vector"
vector 399 Scenario.node[92].wlan[0].radio receptionState:vector ETV
attr interpolationmode sample-hold
attr source receptionStateChanged
attr title "Radio reception state, vector"
vector 400 Scenario.node[92].wlan[0].mac.dcf.recoveryProcedure contentionWindowChanged:vector ETV
attr interpolationmode sample-hold
attr title "contention window, vector"
vector 401 Scenario.node[93].wlan[0].radio radioMode:vector ETV
attr interpolationmode sample-hold
attr source radioModeChanged
attr title "Radio mode, vector"
vector 402 Scenario.node[93].wlan[0].radio radioChannel:vector ETV
attr interpolationmode sample-hold
attr source radioChannelChanged
attr title "Radio channel, vector"
vector 403 Scenario.node[93].wlan[0].radio receptionState:vector ETV
attr interpolationmode sample-hold
attr source receptionStateChanged
attr title "Radio reception state, vector"
vector 404 Scenario.node[93].wlan[0].mac.dcf.recoveryProcedure contentionWindowChanged:vector ETV
attr interpolationmode sample-hold
attr title "contention window, vector"
vector 405 Scenario.node[94].wlan[0].radio radioMode:vector ETV
attr interpolationmode sample-hold
attr source radioModeChanged
attr title "Radio mode, vector"
vector 406 Scenario.node[94].wlan[0].radio radioChannel:vector ETV
attr interpolationmode sample-hold
attr source radioChannelChanged
attr title "Radio channel, vector"
vector 407 Scenario.node[94].wlan[0].radio receptionState:vector ETV
attr interpolationmode sample-hold
attr source receptionStateChanged
attr title "Radio reception state, vector"
vector 408 Scenario.node[94].wlan[0].mac.dcf.recoveryProcedure contentionWindowChanged:vector ETV
attr interpolationmode sample-hold
attr title "contention window, vector"
vector 409 Scenario.node[95].wlan[0].radio radioMode:vector ETV
attr interpolationmode sample-hold
attr source radioModeChanged
attr title "Radio mode, vector"
vector 410 Scenario.node[95].wlan[0].radio radioChannel:vector ETV
attr interpolationmode sample-hold
attr source radioChannelChanged
attr title "Radio channel, vector"
vector 411 Scenario.node[95].wlan[0].radio receptionState:vector ETV
attr interpolationmode sample-hold
attr source receptionStateChanged
attr title "Radio reception state, vector"
vector 412 Scenario.node[95].wlan[0].mac.dcf.recoveryProcedure contentionWindowChanged:vector ETV
attr interpolationmode sample-hold
attr title "contention window, vector"
vector 413 Scenario.node[96].wlan[0].radio radioMode:vector ETV
attr interpolationmode sample-hold
attr source radioModeChanged
attr title "Radio mode, vector"
vector 414 Scenario.node[96].wlan[0].radio radioChannel:vector ETV
attr interpolationmode sample-hold
attr source radioChannelChanged
attr title "Radio channel, vector"
vector 415 Scenario.node[96].wlan[0].radio receptionState:vector ETV
attr interpolationmode sample-hold
attr source receptionStateChanged
attr title "Radio reception state, vector"
vector 416 Scenario.node[96].wlan[0].mac.dcf.recoveryProcedure contentionWindowChanged:vector ETV
attr interpolationmode sample-hold
attr title "contention window, vector"
vector 417 Scenario.node[97].wlan[0].radio radioMode:vector ETV
attr interpolationmode sample-hold
attr source radioModeChanged
attr title "Radio mode, vector"
vector 418 Scenario.node[97].wlan[0].radio radioChannel:vector ETV
attr interpolationmode sample-hold
attr source radioChannelChanged
attr title "Radio channel, vector"
vector 419 Scenario.node[97].wlan[0].radio receptionState:vector ETV
attr interpolationmode sample-hold
attr source receptionStateChanged
attr title "Radio reception state, vector"
vector 420 Scenario.node[97].wlan[0].mac.dcf.recoveryProcedure contentionWindowChanged:vector ETV
attr interpolationmode sample-hold
attr title "contention window, vector"
vector 421 Scenario.node[98].wlan[0].radio radioMode:vector ETV
attr interpolationmode sample-hold
attr source radioModeChanged
attr title "Radio mode, vector"
vector 422 Scenario.node[98].wlan[0].radio radioChannel:vector ETV
attr interpolationmode sample-hold
attr source radioChannelChanged
attr title "Radio channel, vector"
vector 423 Scenario.node[98].wlan[0].radio receptionState:vector ETV
attr interpolationmode sample-hold
attr source receptionStateChanged
attr title "Radio reception state, vector"
vector 424 Scenario.node[98].wlan[0].mac.dcf.recoveryProcedure contentionWindowChanged:vector ETV
attr interpolationmode sample-hold
attr title "contention window, vector"
vector 425 Scenario.node[99].wlan[0].radio radioMode:vector ETV
attr interpolationmode sample-hold
attr source radioModeChanged
attr title "Radio mode, vector"
vector 426 Scenario.node[99].wlan[0].radio radioChannel:vector ETV
attr interpolationmode sample-hold
attr source radioChannelChanged
attr title "Radio channel, vector"
vector 427 Scenario.node[99].wlan[0].radio receptionState:vector ETV
attr interpolationmode sample-hold
attr source receptionStateChanged
attr title "Radio reception state, vector"
vector 428 Scenario.node[99].wlan[0].mac.dcf.recoveryProcedure contentionWindowChanged:vector ETV
attr interpolationmode sample-hold
attr title "contention window, vector"
vector 429 Scenario.node[100].wlan[0].radio radioMode:vector ETV
attr interpolationmode sample-hold
attr source radioModeChanged
attr title "Radio mode, vector"
vector 430 Scenario.node[100].wlan[0].radio radioChannel:vector ETV
attr interpolationmode sample-hold
attr source radioChannelChanged
attr title "Radio channel, vector"
vector 431 Scenario.node[100].wlan[0].radio receptionState:vector ETV
attr interpolationmode sample-hold
attr source receptionStateChanged
attr title "Radio reception state, vector"
vector 432 Scenario.node[100].wlan[0].mac.dcf.recoveryProcedure contentionWindowChanged:vector ETV
attr interpolationmode sample-hold
attr title "contention window, vector"
vector 433 Scenario.node[101].wlan[0].radio radioMode:vector ETV
attr interpolationmode sample-hold
attr source radioModeChanged
attr title "Radio mode, vector"
vector 434 Scenario.node[101].wlan[0].radio radioChannel:vector ETV
attr interpolationmode sample-hold
attr source radioChannelChanged
attr title "Radio channel, vector"
vector 435 Scenario.node[101].wlan[0].radio receptionState:vector ETV
attr interpolationmode sample-hold
attr source receptionStateChanged
attr title "Radio reception state, vector"
vector 436 Scenario.node[101].wlan[0].mac.dcf.recoveryProcedure contentionWindowChanged:vector ETV
attr interpolationmode sample-hold
attr title "contention window, vector"
vector 437 Scenario.node[102].wlan[0].radio radioMode:vector ETV
attr interpolationmode sample-hold
attr source radioModeChanged
attr title "Radio mode, vector"
vector 438 Scenario.node[102].wlan[0].radio radioChannel:vector ETV
attr interpolationmode sample-hold
attr source radioChannelChanged
attr title "Radio channel, vector"
vector 439 Scenario.node[102].wlan[0].radio receptionState:vector ETV
attr interpolationmode sample-hold
attr source receptionStateChanged
attr title "Radio reception state, vector"
vector 440 Scenario.node[102].wlan[0].mac.dcf.recoveryProcedure contentionWindowChanged:vector ETV
attr interpolationmode sample-hold
attr title "contention window, vector"
vector 441 Scenario.node[103].wlan[0].radio radioMode:vector ETV
attr interpolationmode sample-hold
attr source radioModeChanged
attr title "Radio mode, vector"
vector 442 Scenario.node[103].wlan[0].radio radioChannel:vector ETV
attr interpolationmode sample-hold
attr source radioChannelChanged
attr title "Radio channel, vector"
vector 443 Scenario.node[103].wlan[0].radio receptionState:vector ETV
attr interpolationmode sample-hold
attr source receptionStateChanged
attr title "Radio reception state, vector"
vector 444 Scenario.node[103].wlan[0].mac.dcf.recoveryProcedure contentionWindowChanged:vector ETV
attr interpolationmode sample-hold
attr title "contention window, vector"
vector 445 Scenario.node[26].app[0] throughput:vector ETV
attr source throughput(packetReceived)
attr title "throughput, vector"
attr unit bps
132	144269 16 239 239 38.5 38.5 1 15 15 15 225
130	144285 15 239 239 38.5 38.5 1 3 3 3 9
129	144300 45 239 239 38.5 38.5 3 0 2 2 4
131	144345 15 239 239 38.5 38.5 1 1 1 1 1
445	144360 23156 704 704 0.1 153.5 1535 0 0 0 0
vector 446 Scenario.node[104].wlan[0].radio radioMode:vector ETV
attr interpolationmode sample-hold
attr source radioModeChanged
attr title "Radio mode, vector"
vector 447 Scenario.node[104].wlan[0].radio radioChannel:vector ETV
attr interpolationmode sample-hold
attr source radioChannelChanged
attr title "Radio channel, vector"
vector 448 Scenario.node[104].wlan[0].radio receptionState:vector ETV
attr interpolationmode sample-hold
attr source receptionStateChanged
attr title "Radio reception state, vector"
[...]
70	456645 28 102 102 20 20 2 158 158 316 49928
71	456673 24 102 102 20 20 2 0 0 0 0
72	456697 62 102 150 20 20.000375 4 0 2 4 6
73	456759 45 102 134 20 20.000223 2 12000000 12000000 24000000 2.88e+14
74	456804 35 102 134 20 20.000223 2 158 158 316 49928
75	456839 69 102 150 20 20.000375 4 0 1 2 2
76	456908 138 103 151 20 20.000375 8 0 2 8 12
77	457046 42 118 150 20.000152 20.000375 2 158 158 316 49928
78	457088 42 118 150 20.000152 20.000375 2 158 158 316 49928
79	457130 42 118 150 20.000152 20.000375 2 158 158 316 49928
80	457172 52 118 150 20.000152 20.000375 2 0.000152 0.000375 0.000527 1.63729e-07
85	457224 42 169 169 21.5 21.5 3 0 2 2 4
86	457266 14 169 169 21.5 21.5 1 3 3 3 9
87	457280 14 169 169 21.5 21.5 1 1 1 1 1
88	457294 15 169 169 21.5 21.5 1 15 15 15 225
89	457309 42 179 179 23.5 23.5 3 0 2 2 4
90	457351 14 179 179 23.5 23.5 1 3 3 3 9
91	457365 14 179 179 23.5 23.5 1 1 1 1 1
92	457379 15 179 179 23.5 23.5 1 15 15 15 225
101	457394 45 198 198 28.5 28.5 3 0 2 2 4
102	457439 15 198 198 28.5 28.5 1 3 3 3 9
103	457454 15 198 198 28.5 28.5 1 1 1 1 1
104	457469 16 198 198 28.5 28.5 1 15 15 15 225
105	457485 45 205 205 30.5 30.5 3 0 2 2 4
106	457530 15 205 205 30.5 30.5 1 3 3 3 9
107	457545 15 205 205 30.5 30.5 1 1 1 1 1
108	457560 16 205 205 30.5 30.5 1 15 15 15 225
113	457576 45 210 210 31.5 31.5 3 0 2 2 4
114	457621 15 210 210 31.5 31.5 1 3 3 3 9
115	457636 15 210 210 31.5 31.5 1 1 1 1 1
116	457651 16 210 210 31.5 31.5 1 15 15 15 225
117	457667 45 220 220 33.5 33.5 3 0 2 2 4
118	457712 15 220 220 33.5 33.5 1 3 3 3 9
119	457727 15 220 220 33.5 33.5 1 1 1 1 1
120	457742 16 220 220 33.5 33.5 1 15 15 15 225
121	457758 45 227 227 35.5 35.5 3 0 2 2 4
122	457803 15 227 227 35.5 35.5 1 3 3 3 9
123	457818 15 227 227 35.5 35.5 1 1 1 1 1
124	457833 16 227 227 35.5 35.5 1 15 15 15 225
125	457849 45 234 234 37.5 37.5 3 0 2 2 4
126	457894 15 234 234 37.5 37.5 1 3 3 3 9
127	457909 15 234 234 37.5 37.5 1 1 1 1 1
128	457924 16 234 234 37.5 37.5 1 15 15 15 225
133	457940 45 246 246 40.5 40.5 3 0 2 2 4
134	457985 15 246 246 40.5 40.5 1 3 3 3 9
135	458000 15 246 246 40.5 40.5 1 1 1 1 1
136	458015 16 246 246 40.5 40.5 1 15 15 15 225
137	458031 45 253 253 42.5 42.5 3 0 2 2 4
138	458076 15 253 253 42.5 42.5 1 3 3 3 9
139	458091 15 253 253 42.5 42.5 1 1 1 1 1
140	458106 16 253 253 42.5 42.5 1 15 15 15 225
141	458122 45 253 253 42.5 42.5 3 0 2 2 4
142	458167 15 253 253 42.5 42.5 1 3 3 3 9
143	458182 15 253 253 42.5 42.5 1 1 1 1 1
144	458197 16 253 253 42.5 42.5 1 15 15 15 225
145	458213 45 261 261 43.5 43.5 3 0 2 2 4
146	458258 15 261 261 43.5 43.5 1 3 3 3 9
147	458273 15 261 261 43.5 43.5 1 1 1 1 1
148	458288 16 261 261 43.5 43.5 1 15 15 15 225
153	458304 45 275 275 47.5 47.5 3 0 2 2 4
154	458349 15 275 275 47.5 47.5 1 3 3 3 9
155	458364 15 275 275 47.5 47.5 1 1 1 1 1
156	458379 16 275 275 47.5 47.5 1 15 15 15 225
157	458395 45 282 282 49.5 49.5 3 0 2 2 4
158	458440 15 282 282 49.5 49.5 1 3 3 3 9
159	458455 15 282 282 49.5 49.5 1 1 1 1 1
160	458470 16 282 282 49.5 49.5 1 15 15 15 225
165	458486 45 295 295 52.5 52.5 3 0 2 2 4
166	458531 15 295 295 52.5 52.5 1 3 3 3 9
167	458546 15 295 295 52.5 52.5 1 1 1 1 1
168	458561 16 295 295 52.5 52.5 1 15 15 15 225
181	458577 45 317 317 57.5 57.5 3 0 2 2 4
182	458622 15 317 317 57.5 57.5 1 3 3 3 9
183	458637 15 317 317 57.5 57.5 1 1 1 1 1
184	458652 16 317 317 57.5 57.5 1 15 15 15 225
189	458668 45 331 331 61.5 61.5 3 0 2 2 4
190	458713 15 331 331 61.5 61.5 1 3 3 3 9
191	458728 15 331 331 61.5 61.5 1 1 1 1 1
192	458743 16 331 331 61.5 61.5 1 15 15 15 225
193	458759 45 336 336 62.5 62.5 3 0 2 2 4
194	458804 15 336 336 62.5 62.5 1 3 3 3 9
195	458819 15 336 336 62.5 62.5 1 1 1 1 1
196	458834 16 336 336 62.5 62.5 1 15 15 15 225
197	458850 45 336 336 62.5 62.5 3 0 2 2 4
198	458895 15 336 336 62.5 62.5 1 3 3 3 9
199	458910 15 336 336 62.5 62.5 1 1 1 1 1
200	458925 16 336 336 62.5 62.5 1 15 15 15 225
201	458941 45 346 346 64.5 64.5 3 0 2 2 4
202	458986 15 346 346 64.5 64.5 1 3 3 3 9
203	459001 15 346 346 64.5 64.5 1 1 1 1 1
204	459016 16 346 346 64.5 64.5 1 15 15 15 225
205	459032 45 353 353 66.5 66.5 3 0 2 2 4
206	459077 15 353 353 66.5 66.5 1 3 3 3 9
207	459092 15 353 353 66.5 66.5 1 1 1 1 1
208	459107 16 353 353 66.5 66.5 1 15 15 15 225
209	459123 45 360 360 68.5 68.5 3 0 2 2 4
210	459168 15 360 360 68.5 68.5 1 3 3 3 9
211	459183 15 360 360 68.5 68.5 1 1 1 1 1
212	459198 16 360 360 68.5 68.5 1 15 15 15 225
213	459214 45 365 365 69.5 69.5 3 0 2 2 4
214	459259 15 365 365 69.5 69.5 1 3 3 3 9
215	459274 15 365 365 69.5 69.5 1 1 1 1 1
216	459289 16 365 365 69.5 69.5 1 15 15 15 225
217	459305 45 372 372 71.5 71.5 3 0 2 2 4
218	459350 15 372 372 71.5 71.5 1 3 3 3 9
219	459365 15 372 372 71.5 71.5 1 1 1 1 1
220	459380 16 372 372 71.5 71.5 1 15 15 15 225
221	459396 45 379 379 73.5 73.5 3 0 2 2 4
222	459441 15 379 379 73.5 73.5 1 3 3 3 9
223	459456 15 379 379 73.5 73.5 1 1 1 1 1
224	459471 16 379 379 73.5 73.5 1 15 15 15 225
225	459487 45 379 379 73.5 73.5 3 0 2 2 4
226	459532 15 379 379 73.5 73.5 1 3 3 3 9
227	459547 15 379 379 73.5 73.5 1 1 1 1 1
228	459562 16 379 379 73.5 73.5 1 15 15 15 225
229	459578 45 387 387 74.5 74.5 3 0 2 2 4
230	459623 15 387 387 74.5 74.5 1 3 3 3 9
231	459638 15 387 387 74.5 74.5 1 1 1 1 1
232	459653 16 387 387 74.5 74.5 1 15 15 15 225
233	459669 45 394 394 76.5 76.5 3 0 2 2 4
234	459714 15 394 394 76.5 76.5 1 3 3 3 9
235	459729 15 394 394 76.5 76.5 1 1 1 1 1
236	459744 16 394 394 76.5 76.5 1 15 15 15 225
237	459760 45 401 401 78.5 78.5 3 0 2 2 4
238	459805 15 401 401 78.5 78.5 1 3 3 3 9
239	459820 15 401 401 78.5 78.5 1 1 1 1 1
240	459835 16 401 401 78.5 78.5 1 15 15 15 225
241	459851 45 408 408 80.5 80.5 3 0 2 2 4
242	459896 15 408 408 80.5 80.5 1 3 3 3 9
243	459911 15 408 408 80.5 80.5 1 1 1 1 1
244	459926 16 408 408 80.5 80.5 1 15 15 15 225
245	459942 45 413 413 81.5 81.5 3 0 2 2 4
246	459987 15 413 413 81.5 81.5 1 3 3 3 9
247	460002 15 413 413 81.5 81.5 1 1 1 1 1
248	460017 16 413 413 81.5 81.5 1 15 15 15 225
249	460033 45 420 420 83.5 83.5 3 0 2 2 4
250	460078 15 420 420 83.5 83.5 1 3 3 3 9
251	460093 15 420 420 83.5 83.5 1 1 1 1 1
252	460108 16 420 420 83.5 83.5 1 15 15 15 225
253	460124 45 420 420 83.5 83.5 3 0 2 2 4
254	460169 15 420 420 83.5 83.5 1 3 3 3 9
255	460184 15 420 420 83.5 83.5 1 1 1 1 1
256	460199 16 420 420 83.5 83.5 1 15 15 15 225
257	460215 45 430 430 85.5 85.5 3 0 2 2 4
258	460260 15 430 430 85.5 85.5 1 3 3 3 9
259	460275 15 430 430 85.5 85.5 1 1 1 1 1
260	460290 16 430 430 85.5 85.5 1 15 15 15 225
261	460306 45 435 435 86.5 86.5 3 0 2 2 4
262	460351 15 435 435 86.5 86.5 1 3 3 3 9
263	460366 15 435 435 86.5 86.5 1 1 1 1 1
264	460381 16 435 435 86.5 86.5 1 15 15 15 225
265	460397 45 442 442 88.5 88.5 3 0 2 2 4
266	460442 15 442 442 88.5 88.5 1 3 3 3 9
267	460457 15 442 442 88.5 88.5 1 1 1 1 1
268	460472 16 442 442 88.5 88.5 1 15 15 15 225
270	460488 45 449 449 90.5 90.5 3 0 2 2 4
271	460533 15 449 449 90.5 90.5 1 3 3 3 9
272	460548 15 449 449 90.5 90.5 1 1 1 1 1
273	460563 16 449 449 90.5 90.5 1 15 15 15 225
274	460579 45 456 456 92.5 92.5 3 0 2 2 4
275	460624 15 456 456 92.5 92.5 1 3 3 3 9
276	460639 15 456 456 92.5 92.5 1 1 1 1 1
277	460654 16 456 456 92.5 92.5 1 15 15 15 225
278	460670 45 461 461 93.5 93.5 3 0 2 2 4
279	460715 15 461 461 93.5 93.5 1 3 3 3 9
280	460730 15 461 461 93.5 93.5 1 1 1 1 1
281	460745 16 461 461 93.5 93.5 1 15 15 15 225
282	460761 45 461 461 93.5 93.5 3 0 2 2 4
283	460806 15 461 461 93.5 93.5 1 3 3 3 9
284	460821 15 461 461 93.5 93.5 1 1 1 1 1
285	460836 16 461 461 93.5 93.5 1 15 15 15 225
286	460852 45 471 471 95.5 95.5 3 0 2 2 4
287	460897 15 471 471 95.5 95.5 1 3 3 3 9
288	460912 15 471 471 95.5 95.5 1 1 1 1 1
289	460927 16 471 471 95.5 95.5 1 15 15 15 225
291	460943 45 478 478 97.5 97.5 3 0 2 2 4
292	460988 15 478 478 97.5 97.5 1 3 3 3 9
293	461003 15 478 478 97.5 97.5 1 1 1 1 1
294	461018 16 478 478 97.5 97.5 1 15 15 15 225
295	461034 45 483 483 98.5 98.5 3 0 2 2 4
296	461079 15 483 483 98.5 98.5 1 3 3 3 9
297	461094 15 483 483 98.5 98.5 1 1 1 1 1
298	461109 16 483 483 98.5 98.5 1 15 15 15 225
299	461125 48 490 490 100.5 100.5 3 0 2 2 4
300	461173 16 490 490 100.5 100.5 1 3 3 3 9
301	461189 16 490 490 100.5 100.5 1 1 1 1 1
302	461205 17 490 490 100.5 100.5 1 15 15 15 225
303	461222 48 497 497 102.5 102.5 3 0 2 2 4
304	461270 16 497 497 102.5 102.5 1 3 3 3 9
305	461286 16 497 497 102.5 102.5 1 1 1 1 1
306	461302 17 497 497 102.5 102.5 1 15 15 15 225
307	461319 48 504 504 104.5 104.5 3 0 2 2 4
308	461367 16 504 504 104.5 104.5 1 3 3 3 9
309	461383 16 504 504 104.5 104.5 1 1 1 1 1
310	461399 17 504 504 104.5 104.5 1 15 15 15 225
311	461416 48 504 504 104.5 104.5 3 0 2 2 4
312	461464 16 504 504 104.5 104.5 1 3 3 3 9
313	461480 16 504 504 104.5 104.5 1 1 1 1 1
314	461496 17 504 504 104.5 104.5 1 15 15 15 225
315	461513 48 512 512 105.5 105.5 3 0 2 2 4
316	461561 16 512 512 105.5 105.5 1 3 3 3 9
317	461577 16 512 512 105.5 105.5 1 1 1 1 1
318	461593 17 512 512 105.5 105.5 1 15 15 15 225
319	461610 48 519 519 107.5 107.5 3 0 2 2 4
320	461658 16 519 519 107.5 107.5 1 3 3 3 9
321	461674 16 519 519 107.5 107.5 1 1 1 1 1
322	461690 17 519 519 107.5 107.5 1 15 15 15 225
323	461707 48 526 526 109.5 109.5 3 0 2 2 4
324	461755 16 526 526 109.5 109.5 1 3 3 3 9
325	461771 16 526 526 109.5 109.5 1 1 1 1 1
326	461787 17 526 526 109.5 109.5 1 15 15 15 225
327	461804 48 531 531 110.5 110.5 3 0 2 2 4
328	461852 16 531 531 110.5 110.5 1 3 3 3 9
329	461868 16 531 531 110.5 110.5 1 1 1 1 1
330	461884 17 531 531 110.5 110.5 1 15 15 15 225
331	461901 48 538 538 112.5 112.5 3 0 2 2 4
332	461949 16 538 538 112.5 112.5 1 3 3 3 9
333	461965 16 538 538 112.5 112.5 1 1 1 1 1
334	461981 17 538 538 112.5 112.5 1 15 15 15 225
335	461998 48 545 545 114.5 114.5 3 0 2 2 4
336	462046 16 545 545 114.5 114.5 1 3 3 3 9
337	462062 16 545 545 114.5 114.5 1 1 1 1 1
338	462078 17 545 545 114.5 114.5 1 15 15 15 225
339	462095 48 545 545 114.5 114.5 3 0 2 2 4
340	462143 16 545 545 114.5 114.5 1 3 3 3 9
341	462159 16 545 545 114.5 114.5 1 1 1 1 1
342	462175 17 545 545 114.5 114.5 1 15 15 15 225
343	462192 48 555 555 116.5 116.5 3 0 2 2 4
344	462240 16 555 555 116.5 116.5 1 3 3 3 9
345	462256 16 555 555 116.5 116.5 1 1 1 1 1
346	462272 17 555 555 116.5 116.5 1 15 15 15 225
347	462289 48 560 560 117.5 117.5 3 0 2 2 4
348	462337 16 560 560 117.5 117.5 1 3 3 3 9
349	462353 16 560 560 117.5 117.5 1 1 1 1 1
350	462369 17 560 560 117.5 117.5 1 15 15 15 225
351	462386 48 567 567 119.5 119.5 3 0 2 2 4
352	462434 16 567 567 119.5 119.5 1 3 3 3 9
353	462450 16 567 567 119.5 119.5 1 1 1 1 1
354	462466 17 567 567 119.5 119.5 1 15 15 15 225
355	462483 48 574 574 121.5 121.5 3 0 2 2 4
356	462531 16 574 574 121.5 121.5 1 3 3 3 9
357	462547 16 574 574 121.5 121.5 1 1 1 1 1
358	462563 17 574 574 121.5 121.5 1 15 15 15 225
359	462580 48 581 581 123.5 123.5 3 0 2 2 4
360	462628 16 581 581 123.5 123.5 1 3 3 3 9
361	462644 16 581 581 123.5 123.5 1 1 1 1 1
362	462660 17 581 581 123.5 123.5 1 15 15 15 225
364	462677 48 586 586 124.5 124.5 3 0 2 2 4
365	462725 16 586 586 124.5 124.5 1 3 3 3 9
366	462741 16 586 586 124.5 124.5 1 1 1 1 1
367	462757 17 586 586 124.5 124.5 1 15 15 15 225
368	462774 48 586 586 124.5 124.5 3 0 2 2 4
369	462822 16 586 586 124.5 124.5 1 3 3 3 9
370	462838 16 586 586 124.5 124.5 1 1 1 1 1
371	462854 17 586 586 124.5 124.5 1 15 15 15 225
372	462871 48 596 596 126.5 126.5 3 0 2 2 4
373	462919 16 596 596 126.5 126.5 1 3 3 3 9
374	462935 16 596 596 126.5 126.5 1 1 1 1 1
375	462951 17 596 596 126.5 126.5 1 15 15 15 225
376	462968 48 603 603 128.5 128.5 3 0 2 2 4
377	463016 16 603 603 128.5 128.5 1 3 3 3 9
378	463032 16 603 603 128.5 128.5 1 1 1 1 1
379	463048 17 603 603 128.5 128.5 1 15 15 15 225
380	463065 48 608 608 129.5 129.5 3 0 2 2 4
381	463113 16 608 608 129.5 129.5 1 3 3 3 9
382	463129 16 608 608 129.5 129.5 1 1 1 1 1
383	463145 17 608 608 129.5 129.5 1 15 15 15 225
385	463162 48 615 615 131.5 131.5 3 0 2 2 4
386	463210 16 615 615 131.5 131.5 1 3 3 3 9
387	463226 16 615 615 131.5 131.5 1 1 1 1 1
388	463242 17 615 615 131.5 131.5 1 15 15 15 225
389	463259 48 622 622 133.5 133.5 3 0 2 2 4
390	463307 16 622 622 133.5 133.5 1 3 3 3 9
391	463323 16 622 622 133.5 133.5 1 1 1 1 1
392	463339 17 622 622 133.5 133.5 1 15 15 15 225
393	463356 48 627 627 134.5 134.5 3 0 2 2 4
394	463404 16 627 627 134.5 134.5 1 3 3 3 9
395	463420 16 627 627 134.5 134.5 1 1 1 1 1
396	463436 17 627 627 134.5 134.5 1 15 15 15 225
397	463453 48 632 632 135.5 135.5 3 0 2 2 4
398	463501 16 632 632 135.5 135.5 1 3 3 3 9
399	463517 16 632 632 135.5 135.5 1 1 1 1 1
400	463533 17 632 632 135.5 135.5 1 15 15 15 225
401	463550 48 637 637 136.5 136.5 3 0 2 2 4
402	463598 16 637 637 136.5 136.5 1 3 3 3 9
403	463614 16 637 637 136.5 136.5 1 1 1 1 1
404	463630 17 637 637 136.5 136.5 1 15 15 15 225
405	463647 48 644 644 138.5 138.5 3 0 2 2 4
406	463695 16 644 644 138.5 138.5 1 3 3 3 9
407	463711 16 644 644 138.5 138.5 1 1 1 1 1
408	463727 17 644 644 138.5 138.5 1 15 15 15 225
409	463744 48 651 651 140.5 140.5 3 0 2 2 4
410	463792 16 651 651 140.5 140.5 1 3 3 3 9
411	463808 16 651 651 140.5 140.5 1 1 1 1 1
412	463824 17 651 651 140.5 140.5 1 15 15 15 225
413	463841 48 656 656 141.5 141.5 3 0 2 2 4
414	463889 16 656 656 141.5 141.5 1 3 3 3 9
415	463905 16 656 656 141.5 141.5 1 1 1 1 1
416	463921 17 656 656 141.5 141.5 1 15 15 15 225
417	463938 48 663 663 143.5 143.5 3 0 2 2 4
418	463986 16 663 663 143.5 143.5 1 3 3 3 9
419	464002 16 663 663 143.5 143.5 1 1 1 1 1
420	464018 17 663 663 143.5 143.5 1 15 15 15 225
421	464035 48 670 670 145.5 145.5 3 0 2 2 4
422	464083 16 670 670 145.5 145.5 1 3 3 3 9
423	464099 16 670 670 145.5 145.5 1 1 1 1 1
424	464115 17 670 670 145.5 145.5 1 15 15 15 225
425	464132 48 670 670 145.5 145.5 3 0 2 2 4
426	464180 16 670 670 145.5 145.5 1 3 3 3 9
427	464196 16 670 670 145.5 145.5 1 1 1 1 1
428	464212 17 670 670 145.5 145.5 1 15 15 15 225
429	464229 48 680 680 147.5 147.5 3 0 2 2 4
430	464277 16 680 680 147.5 147.5 1 3 3 3 9
431	464293 16 680 680 147.5 147.5 1 1 1 1 1
432	464309 17 680 680 147.5 147.5 1 15 15 15 225
433	464326 48 685 685 148.5 148.5 3 0 2 2 4
434	464374 16 685 685 148.5 148.5 1 3 3 3 9
435	464390 16 685 685 148.5 148.5 1 1 1 1 1
436	464406 17 685 685 148.5 148.5 1 15 15 15 225
437	464423 48 692 692 150.5 150.5 3 0 2 2 4
438	464471 16 692 692 150.5 150.5 1 3 3 3 9
439	464487 16 692 692 150.5 150.5 1 1 1 1 1
440	464503 17 692 692 150.5 150.5 1 15 15 15 225
441	464520 48 699 699 152.5 152.5 3 0 2 2 4
442	464568 16 699 699 152.5 152.5 1 3 3 3 9
443	464584 16 699 699 152.5 152.5 1 1 1 1 1
444	464600 17 699 699 152.5 152.5 1 15 15 15 225
446	464617 48 704 704 153.5 153.5 3 0 2 2 4
447	464665 16 704 704 153.5 153.5 1 3 3 3 9
448	464681 16 704 704 153.5 153.5 1 1 1 1 1
449	464697 17 704 704 153.5 153.5 1 15 15 15 225
451	464714 48 711 711 155.5 155.5 3 0 2 2 4
452	464762 16 711 711 155.5 155.5 1 3 3 3 9
453	464778 16 711 711 155.5 155.5 1 1 1 1 1
454	464794 17 711 711 155.5 155.5 1 15 15 15 225
455	464811 48 711 711 155.5 155.5 3 0 2 2 4
456	464859 16 711 711 155.5 155.5 1 3 3 3 9
457	464875 16 711 711 155.5 155.5 1 1 1 1 1
458	464891 17 711 711 155.5 155.5 1 15 15 15 225
460	464908 48 721 721 157.5 157.5 3 0 2 2 4
461	464956 16 721 721 157.5 157.5 1 3 3 3 9
462	464972 16 721 721 157.5 157.5 1 1 1 1 1
463	464988 17 721 721 157.5 157.5 1 15 15 15 225
464	465005 48 728 728 159.5 159.5 3 0 2 2 4
465	465053 16 728 728 159.5 159.5 1 3 3 3 9
466	465069 16 728 728 159.5 159.5 1 1 1 1 1
467	465085 17 728 728 159.5 159.5 1 15 15 15 225
468	465102 48 733 733 160.5 160.5 3 0 2 2 4
469	465150 16 733 733 160.5 160.5 1 3 3 3 9
470	465166 16 733 733 160.5 160.5 1 1 1 1 1
471	465182 17 733 733 160.5 160.5 1 15 15 15 225
474	465199 48 744 744 164.5 164.5 3 0 2 2 4
475	465247 16 744 744 164.5 164.5 1 3 3 3 9
476	465263 16 744 744 164.5 164.5 1 1 1 1 1
477	465279 17 744 744 164.5 164.5 1 15 15 15 225
478	465296 48 749 749 165.5 165.5 3 0 2 2 4
479	465344 16 749 749 165.5 165.5 1 3 3 3 9
480	465360 16 749 749 165.5 165.5 1 1 1 1 1
481	465376 17 749 749 165.5 165.5 1 15 15 15 225
482	465393 48 749 749 165.5 165.5 3 0 2 2 4
483	465441 16 749 749 165.5 165.5 1 3 3 3 9
484	465457 16 749 749 165.5 165.5 1 1 1 1 1
485	465473 17 749 749 165.5 165.5 1 15 15 15 225
486	465490 48 759 759 167.5 167.5 3 0 2 2 4
487	465538 16 759 759 167.5 167.5 1 3 3 3 9
488	465554 16 759 759 167.5 167.5 1 1 1 1 1
489	465570 17 759 759 167.5 167.5 1 15 15 15 225
490	465587 48 766 766 169.5 169.5 3 0 2 2 4
491	465635 16 766 766 169.5 169.5 1 3 3 3 9
492	465651 16 766 766 169.5 169.5 1 1 1 1 1
493	465667 17 766 766 169.5 169.5 1 15 15 15 225
495	465684 48 773 773 171.5 171.5 3 0 2 2 4
496	465732 16 773 773 171.5 171.5 1 3 3 3 9
497	465748 16 773 773 171.5 171.5 1 1 1 1 1
498	465764 17 773 773 171.5 171.5 1 15 15 15 225
499	465781 48 778 778 172.5 172.5 3 0 2 2 4
500	465829 16 778 778 172.5 172.5 1 3 3 3 9
501	465845 16 778 778 172.5 172.5 1 1 1 1 1
502	465861 17 778 778 172.5 172.5 1 15 15 15 225
503	465878 48 785 785 174.5 174.5 3 0 2 2 4
504	465926 16 785 785 174.5 174.5 1 3 3 3 9
505	465942 16 785 785 174.5 174.5 1 1 1 1 1
506	465958 17 785 785 174.5 174.5 1 15 15 15 225
508	465975 48 792 792 176.5 176.5 3 0 2 2 4
509	466023 16 792 792 176.5 176.5 1 3 3 3 9
510	466039 16 792 792 176.5 176.5 1 1 1 1 1
511	466055 17 792 792 176.5 176.5 1 15 15 15 225
512	466072 48 792 792 176.5 176.5 3 0 2 2 4
513	466120 16 792 792 176.5 176.5 1 3 3 3 9
514	466136 16 792 792 176.5 176.5 1 1 1 1 1
515	466152 17 792 792 176.5 176.5 1 15 15 15 225
516	466169 48 802 802 178.5 178.5 3 0 2 2 4
517	466217 16 802 802 178.5 178.5 1 3 3 3 9
518	466233 16 802 802 178.5 178.5 1 1 1 1 1
519	466249 17 802 802 178.5 178.5 1 15 15 15 225
520	466266 48 807 807 179.5 179.5 3 0 2 2 4
521	466314 16 807 807 179.5 179.5 1 3 3 3 9
522	466330 16 807 807 179.5 179.5 1 1 1 1 1
523	466346 17 807 807 179.5 179.5 1 15 15 15 225
525	466363 48 814 814 181.5 181.5 3 0 2 2 4
526	466411 16 814 814 181.5 181.5 1 3 3 3 9
527	466427 16 814 814 181.5 181.5 1 1 1 1 1
528	466443 17 814 814 181.5 181.5 1 15 15 15 225
529	466460 48 821 821 183.5 183.5 3 0 2 2 4
530	466508 16 821 821 183.5 183.5 1 3 3 3 9
531	466524 16 821 821 183.5 183.5 1 1 1 1 1
532	466540 17 821 821 183.5 183.5 1 15 15 15 225
533	466557 48 826 826 184.5 184.5 3 0 2 2 4
534	466605 16 826 826 184.5 184.5 1 3 3 3 9
535	466621 16 826 826 184.5 184.5 1 1 1 1 1
536	466637 17 826 826 184.5 184.5 1 15 15 15 225
538	466654 48 833 833 186.5 186.5 3 0 2 2 4
539	466702 16 833 833 186.5 186.5 1 3 3 3 9
540	466718 16 833 833 186.5 186.5 1 1 1 1 1
541	466734 17 833 833 186.5 186.5 1 15 15 15 225
542	466751 48 833 833 186.5 186.5 3 0 2 2 4
543	466799 16 833 833 186.5 186.5 1 3 3 3 9
544	466815 16 833 833 186.5 186.5 1 1 1 1 1
545	466831 17 833 833 186.5 186.5 1 15 15 15 225
548	466848 48 843 843 188.5 188.5 3 0 2 2 4
549	466896 16 843 843 188.5 188.5 1 3 3 3 9
550	466912 16 843 843 188.5 188.5 1 1 1 1 1
551	466928 17 843 843 188.5 188.5 1 15 15 15 225
552	466945 48 850 850 190.5 190.5 3 0 2 2 4
553	466993 16 850 850 190.5 190.5 1 3 3 3 9
554	467009 16 850 850 190.5 190.5 1 1 1 1 1
555	467025 17 850 850 190.5 190.5 1 15 15 15 225
556	467042 48 855 855 191.5 191.5 3 0 2 2 4
557	467090 16 855 855 191.5 191.5 1 3 3 3 9
558	467106 16 855 855 191.5 191.5 1 1 1 1 1
559	467122 17 855 855 191.5 191.5 1 15 15 15 225
560	467139 48 862 862 193.5 193.5 3 0 2 2 4
561	467187 16 862 862 193.5 193.5 1 3 3 3 9
562	467203 16 862 862 193.5 193.5 1 1 1 1 1
563	467219 17 862 862 193.5 193.5 1 15 15 15 225
564	467236 48 869 869 195.5 195.5 3 0 2 2 4
565	467284 16 869 869 195.5 195.5 1 3 3 3 9
566	467300 16 869 869 195.5 195.5 1 1 1 1 1
567	467316 17 869 869 195.5 195.5 1 15 15 15 225
568	467333 48 874 874 196.5 196.5 3 0 2 2 4
569	467381 16 874 874 196.5 196.5 1 3 3 3 9
570	467397 16 874 874 196.5 196.5 1 1 1 1 1
571	467413 17 874 874 196.5 196.5 1 15 15 15 225
572	467430 48 874 874 196.5 196.5 3 0 2 2 4
573	467478 16 874 874 196.5 196.5 1 3 3 3 9
574	467494 16 874 874 196.5 196.5 1 1 1 1 1
575	467510 17 874 874 196.5 196.5 1 15 15 15 225

