version 2
run Default-0-20231229-22:38:18-14102
attr configname Default
attr datetime 20231229-22:38:18
attr experiment Default
attr inifile omnetpp.ini
attr iterationvars ""
attr iterationvarsf ""
attr measurement ""
attr network scoretable
attr processid 14102
attr repetition 0
attr replication #0
attr resultdir results
attr runnumber 0
attr seedset 0
param *.playgroundSizeX 2500m
param *.playgroundSizeY 2500m
param *.playgroundSizeZ 50m
param *.annotations.draw true
param *.manager.updateInterval 1s
param *.manager.host "\"localhost\""
param *.manager.port 9999
param *.manager.autoShutdown false
param *.manager.launchConfig "xmldoc(\"scoretable.launchd.xml\")"
param *.connectionManager.sendDirect true
param *.connectionManager.maxInterfDist 2600m
param *.connectionManager.drawMaxIntfDist true
param *.**.nic.mac1609_4.txPower 20mW
param *.**.nic.phy80211p.minPowerLevel -110dBm
param *.**.nic.phy80211p.useNoiseFloor true
param *.**.nic.phy80211p.noiseFloor -98dBm
param *.**.nic.phy80211p.decider "xmldoc(\"config.xml\")"
param *.**.nic.phy80211p.analogueModels "xmldoc(\"config.xml\")"
param *.**.nic.phy80211p.usePropagationDelay true
param *.node[*].applType "\"VeinsApp\""
param *.node[*].appl.headerLength "80 bit"
param *.node[*].appl.sendBeacons true
param *.node[*].appl.dataOnSch false
param *.node[*].appl.beaconInterval 3s
param *.node[*].veinsmobility.x 0
param *.node[*].veinsmobility.y 0
param *.node[*].veinsmobility.z 0
param *.node[*].veinsmobility.setHostSpeed false
param *.node[*0].veinsmobility.accidentCount 0
param *.node[*0].veinsmobility.accidentStart 73s
param *.node[*0].veinsmobility.accidentDuration 50s

vector 0 scoretable.node[0].veinsmobility posx ETV
vector 1 scoretable.node[0].veinsmobility posy ETV
vector 2 scoretable.node[0].veinsmobility speed ETV
vector 3 scoretable.node[0].veinsmobility acceleration ETV
vector 4 scoretable.node[0].veinsmobility co2emission ETV
vector 5 scoretable.node[1].veinsmobility posx ETV
vector 6 scoretable.node[1].veinsmobility posy ETV
vector 7 scoretable.node[1].veinsmobility speed ETV
vector 8 scoretable.node[2].veinsmobility posx ETV
vector 9 scoretable.node[2].veinsmobility posy ETV
vector 10 scoretable.node[1].veinsmobility acceleration ETV
vector 11 scoretable.node[1].veinsmobility co2emission ETV
vector 12 scoretable.node[2].veinsmobility speed ETV
vector 13 scoretable.node[2].veinsmobility acceleration ETV
vector 14 scoretable.node[2].veinsmobility co2emission ETV
vector 15 scoretable.node[3].veinsmobility posx ETV
vector 16 scoretable.node[3].veinsmobility posy ETV
vector 17 scoretable.node[3].veinsmobility speed ETV
vector 18 scoretable.node[3].veinsmobility acceleration ETV
vector 19 scoretable.node[3].veinsmobility co2emission ETV
vector 20 scoretable.node[4].veinsmobility posx ETV
vector 21 scoretable.node[4].veinsmobility posy ETV
vector 22 scoretable.node[4].veinsmobility speed ETV
vector 23 scoretable.node[4].veinsmobility acceleration ETV
vector 24 scoretable.node[4].veinsmobility co2emission ETV
vector 25 scoretable.node[5].veinsmobility posx ETV
vector 26 scoretable.node[5].veinsmobility posy ETV
vector 27 scoretable.node[6].veinsmobility posx ETV
vector 28 scoretable.node[6].veinsmobility posy ETV
vector 29 scoretable.node[5].veinsmobility speed ETV
vector 30 scoretable.node[5].veinsmobility acceleration ETV
vector 31 scoretable.node[5].veinsmobility co2emission ETV
vector 32 scoretable.node[6].veinsmobility speed ETV
vector 33 scoretable.node[6].veinsmobility acceleration ETV
vector 34 scoretable.node[6].veinsmobility co2emission ETV
vector 35 scoretable.node[7].veinsmobility posx ETV
vector 36 scoretable.node[7].veinsmobility posy ETV
vector 37 scoretable.node[8].veinsmobility posx ETV
vector 38 scoretable.node[8].veinsmobility posy ETV
vector 39 scoretable.node[7].veinsmobility speed ETV
vector 40 scoretable.node[7].veinsmobility acceleration ETV
vector 41 scoretable.node[7].veinsmobility co2emission ETV
vector 42 scoretable.node[8].veinsmobility speed ETV
vector 43 scoretable.node[8].veinsmobility acceleration ETV
vector 44 scoretable.node[8].veinsmobility co2emission ETV
vector 45 scoretable.node[9].veinsmobility posx ETV
vector 46 scoretable.node[9].veinsmobility posy ETV
vector 47 scoretable.node[9].veinsmobility speed ETV
vector 48 scoretable.node[10].veinsmobility posx ETV
vector 49 scoretable.node[10].veinsmobility posy ETV
vector 50 scoretable.node[9].veinsmobility acceleration ETV
vector 51 scoretable.node[9].veinsmobility co2emission ETV
vector 52 scoretable.node[10].veinsmobility speed ETV
vector 53 scoretable.node[10].veinsmobility acceleration ETV
vector 54 scoretable.node[10].veinsmobility co2emission ETV
vector 55 scoretable.node[11].veinsmobility posx ETV
vector 56 scoretable.node[11].veinsmobility posy ETV
vector 57 scoretable.node[12].veinsmobility posx ETV
vector 58 scoretable.node[12].veinsmobility posy ETV
vector 59 scoretable.node[11].veinsmobility speed ETV
vector 60 scoretable.node[12].veinsmobility speed ETV
vector 61 scoretable.node[11].veinsmobility acceleration ETV
vector 62 scoretable.node[11].veinsmobility co2emission ETV
vector 63 scoretable.node[12].veinsmobility acceleration ETV
vector 64 scoretable.node[12].veinsmobility co2emission ETV
4	59	3	1.3795147774479
4	97	4	1.426887969212
4	126	5	1.4741597006703
4	194	6	1.7614586750898
4	278	7	1.9933399690778
4	440	8	1.944467790016
4	561	9	1.9551176312622
4	703	10	2.4845269605317
4	960	11	2.4443900742037
4	1136	12	2.834229218886
4	1332	13	2.8103956754387
4	1598	14	3.1633604514816
4	1773	15	2.7305136347888
4	1977	16	3.1887014508184
4	2234	17	3.0123792368141
4	2419	18	2.7801211307044
4	2623	19	3.4344257213147
4	2889	20	3.0488588900665
4	3066	21	4.0543989474778
4	3270	22	4.3061982321218
4	3528	23	3.4314230662132
4	3713	24	3.8439233554826
4	3925	25	3.5573123802799
4	4191	26	4.4202110824609
4	4376	27	4.4090408445778
4	4579	28	4.1602521746
4	4845	29	4.0334797345453
4	5021	30	5.400991046152
4	5225	31	4.7333560688785
4	5483	32	5.2536392145606
4	5660	33	6.0128179518749
4	5864	34	5.3799789025305
4	6213	35	6.554625340172
4	6497	36	7.0127097644459
4	6780	37	5.0599647756059
4	7128	38	1.5948993475302
4	7399	39	4.8309038128446
4	7672	40	2.7099419175727
4	8021	41	0.973
4	8293	42	0.973
4	8565	43	0.973
4	8912	44	1.5973900549337
4	9183	45	2.4332297084808
4	9464	46	2.2159088565586
4	9814	47	1.3091930008386
4	10098	48	1.69883765224
4	10382	49	2.0931699331638
4	10721	50	1.5008321292245
4	11002	51	1.757950694177
4	11401	52	2.2587219754011
4	11948	53	1.7639955672569
4	12395	54	2.3018970204932
4	12933	55	2.1220630998673
4	13470	56	1.6719453304436
4	13928	57	1.2618711997149
4	14635	58	1.7973235189491
4	15469	59	2.4615883045373
4	16134	60	1.993064959967
4	16972	61	1.7629514120653
4	17802	62	2.090241476692
4	18553	63	1.8052413636257
4	19558	64	1.2343812642407
4	20647	65	1.8617085484962
4	21535	66	1.5379622188745
4	22775	67	2.0144248377098
4	23877	68	2.8558229536971
4	24743	69	1.4795797790278
4	26405	70	1.6589464490008
4	27803	71	1.412893389323
4	29041	72	1.9463675367642
4	30686	73	2.6073085611594
4	32091	74	1.3767857883816
4	33310	75	2.5784200717992
4	34952	76	0.973
4	36317	77	1.6719600434028
4	37547	78	2.5676432855002
4	39188	79	1.3498300133729
4	40576	80	1.6307789525738
4	41783	81	2.3077480092662
4	43419	82	1.6559334194767
3	59	3	0.62151130186394
3	97	4	0.50398012343794
3	126	5	0.45064513711259
3	194	6	0.69467399260029
3	278	7	0.76542628984898
3	440	8	0.58650424452499
3	561	9	0.51055927844718
3	703	10	0.79417001493275
3	960	11	0.65980869084597
3	1136	12	0.78641433259472
3	1332	13	0.68182526780292
3	1598	14	0.76699023609981
3	1773	15	0.50961833493784
3	1977	16	0.65086621548981
3	2234	17	0.52960096700117
3	2419	18	0.40654113776982
3	2623	19	0.60738791655749
3	2889	20	0.43498446615413
3	3066	21	0.72404946349561
3	3270	22	0.74081045081839
3	3528	23	0.43709305608645
3	3713	24	0.5262699753046
3	3925	25	0.41690850649029
3	4191	26	0.6175796315074
3	4376	27	0.5747435444966
3	4579	28	0.47949384627864
3	4845	29	0.42272895155475
3	5021	30	0.71065628677607
3	5225	31	0.51882409024984
3	5483	32	0.60002196477726
3	5660	33	0.71893571065739
3	5864	34	0.54825417259708
3	6213	35	0.74228050801903
3	6497	36	0.77881938889623
3	6780	37	0.37796424786888
3	7128	38	-0.28074341723696
3	7399	39	0.33151915268973
3	7672	40	-0.072085180785507
3	8021	41	-3.3875090501903
3	8293	42	-4.1334483726376
3	8565	43	-1.9103553759214
3	8912	44	-0.08900285633281
3	9183	45	0.18902379386127
3	9464	46	0.11120368475094
3	9814	47	-0.18953519267961
3	10098	48	-0.055623321328312
3	10382	49	0.076253314223141
3	10721	50	-0.12231557462365
3	11002	51	-0.03324299165979
3	11401	52	0.13336173919961
3	11948	53	-0.033925891295075
3	12395	54	0.14341003717855
3	12933	55	0.079849966149778
3	13470	56	-0.069156451895834
3	13928	57	-0.20445805871859
3	14635	58	-0.020529080741108
3	15469	59	0.19798583379015
3	16134	60	0.038582117203623
3	16972	61	-0.037796805240214
3	17802	62	0.070105213113129
3	18553	63	-0.024815220944584
3	19558	64	-0.21399277877062
3	20647	65	0.0006165550090369
3	21535	66	-0.10782996686176
3	22775	67	0.054716603085399
3	23877	68	0.32506142752245
3	24743	69	-0.13284932635725
3	26405	70	-0.070448271464556
3	27803	71	-0.15144970733672
3	29041	72	0.031278226990253
3	30686	73	0.24579965928569
3	32091	74	-0.16576170362532
3	33310	75	0.23276376994327
3	34952	76	-0.27645546561107
3	36317	77	-0.062343850359321
3	37547	78	0.23429554905742
3	39188	79	-0.17422377793118
3	40576	80	-0.076135444827377
3	41783	81	0.15075727673247
3	43419	82	-0.069477941747754
2	30	2	0.73833486335352
2	59	3	1.3598461652175
2	97	4	1.8638262886554
2	126	5	2.314471425768
2	194	6	3.0091454183683
2	278	7	3.7745717082173
2	440	8	4.3610759527422
2	561	9	4.8716352311894
2	703	10	5.6658052461222
2	960	11	6.3256139369681
2	1136	12	7.1120282695629
2	1332	13	7.7938535373658
2	1598	14	8.5608437734656
2	1773	15	9.0704621084034
2	1977	16	9.7213283238932
2	2234	17	10.250929290894
2	2419	18	10.657470428664
2	2623	19	11.264858345222
2	2889	20	11.699842811376
2	3066	21	12.423892274871
2	3270	22	13.16470272569
2	3528	23	13.601795781776
2	3713	24	14.128065757081
2	3925	25	14.544974263571
2	4191	26	15.162553895079
2	4376	27	15.737297439575
2	4579	28	16.216791285854
2	4845	29	16.639520237409
2	5021	30	17.350176524185
2	5225	31	17.869000614434
2	5483	32	18.469022579212
2	5660	33	19.187958289869
2	5864	34	19.736212462466
2	6213	35	20.478492970485
2	6497	36	21.257312359381
2	6780	37	21.63527660725
2	7128	38	21.354533190013
2	7399	39	21.686052342703
2	7672	40	21.613967161918
2	8021	41	18.226458111727
2	8293	42	14.09300973909
2	8565	43	12.182654363168
2	8912	44	12.093651506836
2	9183	45	12.282675300697
2	9464	46	12.393878985448
2	9814	47	12.204343792768
2	10098	48	12.14872047144
2	10382	49	12.224973785663
2	10721	50	12.102658211039
2	11002	51	12.06941521938
2	11401	52	12.202776958579
2	11948	53	12.168851067284
2	12395	54	12.312261104463
2	12933	55	12.392111070612
2	13470	56	12.322954618717
2	13928	57	12.118496559998
2	14635	58	12.097967479257
2	15469	59	12.295953313047
2	16134	60	12.334535430251
2	16972	61	12.29673862501
2	17802	62	12.366843838124
2	18553	63	12.342028617179
2	19558	64	12.128035838408
2	20647	65	12.128652393417
2	21535	66	12.020822426556
2	22775	67	12.075539029641
2	23877	68	12.400600457164
2	24743	69	12.267751130806
2	26405	70	12.197302859342
2	27803	71	12.045853152005
2	29041	72	12.077131378995
2	30686	73	12.322931038281
2	32091	74	12.157169334656
2	33310	75	12.389933104599
2	34952	76	12.113477638988
2	36317	77	12.051133788628
2	37547	78	12.285429337686
2	39188	79	12.111205559755
2	40576	80	12.035070114927
2	41783	81	12.18582739166
2	43419	82	12.116349449912
1	2	1	30.1
1	30	2	30.838334863354
1	59	3	32.198181028571
1	97	4	34.062007317226
1	126	5	36.376478742994
1	194	6	39.385624161363
1	278	7	43.16019586958
1	440	8	47.521271822322
1	561	9	52.392907053512
1	703	10	58.058712299634
1	960	11	64.384326236602
1	1136	12	71.496354506165
1	1332	13	79.290208043531
1	1598	14	87.851051816996
1	1773	15	96.9215139254
1	1977	16	106.64284224929
1	2234	17	116.89377154019
1	2419	18	127.55124196885
1	2623	19	138.81610031407
1	2889	20	150.51594312545
1	3066	21	162.93983540032
1	3270	22	176.10453812601
1	3528	23	189.70633390779
1	3713	24	203.83439966487
1	3925	25	218.37937392844
1	4191	26	233.54192782352
1	4376	27	249.27922526309
1	4579	28	265.49601654895
1	4845	29	282.13553678636
1	5021	30	299.48571331054
1	5225	31	317.35471392497
1	5483	32	335.82373650419
1	5660	33	355.01169479406
1	5864	34	374.74790725652
1	6213	35	395.22640022701
1	6497	36	416.48371258639
1	6780	37	438.11898919364
1	7128	38	459.47352238365
1	7399	39	481.15957472636
1	7672	40	502.77354188827
1	8021	41	521
1	8293	42	535.09300973909
1	8565	43	547.27566410226
1	8912	44	559.36931560909
1	9183	45	571.65199090979
1	9464	46	584.04586989524
1	9814	47	596.25021368801
1	10098	48	608.39893415945
1	10382	49	620.62390794511
1	10721	50	632.72656615615
1	11002	51	644.79598137553
1	11401	52	656.99875833411
1	11948	53	669.16760940139
1	12395	54	681.47987050585
1	12933	55	693.87198157647
1	13470	56	706.19493619518
1	13928	57	718.31343275518
1	14635	58	730.41140023444
1	15469	59	742.70735354749
1	16134	60	755.04188897774
1	16972	61	767.33862760275
1	17802	62	779.70547144087
1	18553	63	792.04750005805
1	19558	64	804.17553589646
1	20647	65	816.30418828987
1	21535	66	828.32501071643
1	22775	67	840.40054974607
1	23877	68	852.80115020324
1	24743	69	865.06890133404
1	26405	70	877.26620419338
1	27803	71	889.31205734539
1	29041	72	901.38918872438
1	30686	73	913.71211976266
1	32091	74	925.86928909732
1	33310	75	938.25922220192
1	34952	76	950.37269984091
1	36317	77	962.42383362954
1	37547	78	974.70926296722
1	39188	79	986.82046852698
1	40576	80	998.8555386419
1	41783	81	1011.0413660336
1	43419	82	1023.1577154835
0	2	1	520.2
0	30	2	520.2
0	59	3	520.2
0	97	4	520.2
0	126	5	520.2
0	194	6	520.2
0	278	7	520.2
0	440	8	520.2
0	561	9	520.2
0	703	10	520.2
0	960	11	520.2
0	1136	12	520.2
0	1332	13	520.2
0	1598	14	520.2
0	1773	15	520.2
0	1977	16	520.2
0	2234	17	520.2
0	2419	18	520.2
0	2623	19	520.2
0	2889	20	520.2
0	3066	21	520.2
0	3270	22	520.2
0	3528	23	520.2
0	3713	24	520.2
0	3925	25	520.2
0	4191	26	520.2
0	4376	27	520.2
0	4579	28	520.2
0	4845	29	520.2
0	5021	30	520.2
0	5225	31	520.2
0	5483	32	520.2
0	5660	33	520.2
0	5864	34	520.2
0	6213	35	520.2
0	6497	36	520.2
0	6780	37	520.2
0	7128	38	520.2
0	7399	39	520.2
0	7672	40	520.2
0	8021	41	520.2
0	8293	42	520.2
0	8565	43	520.2
0	8912	44	520.2
0	9183	45	520.2
0	9464	46	520.2
0	9814	47	520.2
0	10098	48	520.2
0	10382	49	520.2
0	10721	50	520.2
0	11002	51	520.2
0	11401	52	520.2
0	11948	53	520.2
0	12395	54	520.2
0	12933	55	520.2
0	13470	56	520.2
0	13928	57	520.2
0	14635	58	520.2
0	15469	59	520.2
0	16134	60	520.2
0	16972	61	520.2
0	17802	62	520.2
0	18553	63	520.2
0	19558	64	520.2
0	20647	65	520.2
0	21535	66	520.2
0	22775	67	520.2
0	23877	68	520.2
0	24743	69	520.2
0	26405	70	520.2
0	27803	71	520.2
0	29041	72	520.2
0	30686	73	520.2
0	32091	74	520.2
0	33310	75	520.2
0	34952	76	520.2
0	36317	77	520.2
0	37547	78	520.2
0	39188	79	520.2
0	40576	80	520.2
0	41783	81	520.2
0	43419	82	520.2
14	561	9	1.434283176917
14	703	10	1.436870274308
14	960	11	1.6666527110034
14	1136	12	1.761945160158
14	1332	13	1.6534505213967
14	1598	14	1.7541614349681
14	1773	15	1.7977065383807
14	1977	16	2.2107197610373
14	2234	17	2.4365350303037
14	2419	18	2.1686743514356
14	2623	19	2.8267623134976
14	2889	20	3.040416320695
14	3066	21	2.9350308260036
14	3270	22	3.3441529578191
14	3528	23	2.622288270146
14	3713	24	3.1082812788885
14	3925	25	3.801686156758
14	4191	26	3.4746104634128
14	4376	27	3.5096502901858
14	4579	28	3.8877873458593
14	4845	29	3.889260077323
14	5021	30	4.3161245591035
14	5225	31	4.2685117665142
14	5483	32	4.2043500625594
14	5660	33	4.0131116448327
14	5864	34	4.7694356597937
14	6213	35	4.3913232469419
14	6497	36	4.5495164332762
14	6780	37	5.3157312983105
14	7128	38	5.2616952192097
14	7399	39	5.9844155361414
14	7672	40	5.0563381727491
14	8021	41	3.6218785978515
14	8293	42	1.8435381575453
14	8565	43	2.6214612105449
14	8912	44	2.2520738446737
14	9183	45	2.9039265690719
14	9464	46	2.9448310277313
14	9814	47	3.4505518831649
14	10098	48	0.973
14	10382	49	0.973
14	10721	50	1.8273830336883
14	11002	51	2.7508760844668
14	11401	52	0.973
14	11948	53	2.589876496626
14	12395	54	0.973
14	12933	55	2.3229262974443
14	13470	56	1.6165987397714
14	13928	57	1.4670859220429
14	14635	58	2.4312412702062
14	15469	59	1.5801405495515
14	16134	60	2.2531626273906
14	16972	61	0.973
14	17802	62	1.9832193170646
14	18553	63	1.4145299330454
14	19558	64	2.18245322038
14	20647	65	1.7873682678487
14	21535	66	1.6521145193941
14	22775	67	1.3976242527873
14	23877	68	2.211372678985
14	24743	69	1.2912907563378
14	26405	70	2.1831801290797
14	27803	71	2.2441366364921
14	29041	72	1.3527317211976
14	30686	73	1.6067744266631
14	32091	74	1.7112312208053
14	33310	75	2.1764633916318
14	34952	76	1.4434658748542
14	36317	77	1.6596163065019
14	37547	78	1.9939641590949
14	39188	79	2.4592905983445
14	40576	80	1.3462074451036
14	41783	81	1.8683836397029
14	43419	82	1.8602779275602
14	44799	83	1.5748677187716
14	45893	84	1.2440042556991
14	47283	85	1.8771266716489
14	48519	86	2.3790367149017
14	49615	87	2.1068377219252
14	51008	88	1.6124322880173
14	52242	89	1.738494311197
14	53333	90	2.0198611319662
14	54717	91	1.5434615284475
14	55954	92	0.973
13	561	9	0.70906437002122
13	703	10	0.48803248172626
13	960	11	0.67241110894829
13	1136	12	0.62463631005958
13	1332	13	0.40871084155515
13	1598	14	0.44285594131798
13	1773	15	0.42100956952199
13	1977	16	0.66720807822421
13	2234	17	0.71623745374382
13	2419	18	0.47150835003704
13	2623	19	0.77429815707728
13	2889	20	0.78332134941593
13	3066	21	0.65195623841137
13	3270	22	0.75693732947111
13	3528	23	0.40598847288638
13	3713	24	0.56197917228565
13	3925	25	0.76021132459864
13	4191	26	0.58807305591181
13	4376	27	0.55661055324599
13	4579	28	0.63247702782974
13	4845	29	0.58784141298383
13	5021	30	0.66583686033264
13	5225	31	0.60686691692099
13	5483	32	0.55099222846329
13	5660	33	0.4699162857607
13	5864	34	0.62474343143404
13	6213	35	0.49799481322989
13	6497	36	0.50564715787769
13	6780	37	0.64400976877659
13	7128	38	0.59278543479741
13	7399	39	0.70407448224723
13	7672	40	0.47709536030696
13	8021	41	0.16929740272462
13	8293	42	-0.19589599696919
13	8565	43	-0.031589454691858
13	8912	44	-0.10635821744799
13	9183	45	0.030411550682036
13	9464	46	0.037734879087658
13	9814	47	0.13873281981796
13	10098	48	-4.260688335529
13	10382	49	-4.5
13	10721	50	0.020990628565722
13	11002	51	0.34492598613724
13	11401	52	-0.38297049077228
13	11948	53	0.29164043739438
13	12395	54	-0.25190198682249
13	12933	55	0.19667102498934
13	13470	56	-0.061335484497249
13	13928	57	-0.11424223883077
13	14635	58	0.23349318308756
13	15469	59	-0.075848992820829
13	16134	60	0.16438080212101
13	16972	61	-0.24025381179526
13	17802	62	0.072625806182623
13	18553	63	-0.13423764472827
13	19558	64	0.14548462731764
13	20647	65	0.00017049890011656
13	21535	66	-0.048299821373076
13	22775	67	-0.1397655681707
13	23877	68	0.15747871836647
13	24743	69	-0.17921864101663
13	26405	70	0.14843276776373
13	27803	71	0.16353271715343
13	29041	72	-0.15874453354627
13	30686	73	-0.063256759755312
13	32091	74	-0.023747063148768
13	33310	75	0.14328728085384
13	34952	76	-0.12387888049707
13	36317	77	-0.042356562241912
13	37547	78	0.079433552175759
13	39188	79	0.23936030948535
13	40576	80	-0.16192417992279
13	41783	81	0.029311911668628
13	43419	82	0.025494786165655
13	44799	83	-0.077219618950039
13	45893	84	-0.19669246533886
13	47283	85	0.039615738391877
13	48519	86	0.2164167387411
13	49615	87	0.11198530308902
13	51008	88	-0.065996108856053
13	52242	89	-0.019370430614799
13	53333	90	0.080567498411984
13	54717	91	-0.090533629804849
13	55954	92	-0.27629123069346
12	440	8	0.76947668353096
12	561	9	1.4785410535522
12	703	10	1.9665735352784
12	960	11	2.6389846442267
12	1136	12	3.2636209542863
12	1332	13	3.6723317958415
12	1598	14	4.1151877371594
12	1773	15	4.5361973066814
12	1977	16	5.2034053849056
12	2234	17	5.9196428386495
12	2419	18	6.3911511886865
12	2623	19	7.1654493457638
12	2889	20	7.9487706951797
12	3066	21	8.6007269335911
12	3270	22	9.3576642630622
12	3528	23	9.7636527359486
12	3713	24	10.325631908234
12	3925	25	11.085843232833
12	4191	26	11.673916288745
12	4376	27	12.230526841991
12	4579	28	12.86300386982
12	4845	29	13.450845282804
12	5021	30	14.116682143137
12	5225	31	14.723549060058
12	5483	32	15.274541288521
12	5660	33	15.744457574282
12	5864	34	16.369201005716
12	6213	35	16.867195818946
12	6497	36	17.372842976823
12	6780	37	18.0168527456
12	7128	38	18.609638180397
12	7399	39	19.313712662645
12	7672	40	19.790808022952
12	8021	41	19.960105425676
12	8293	42	19.764209428707
12	8565	43	19.732619974015
12	8912	44	19.626261756567
12	9183	45	19.656673307249
12	9464	46	19.694408186337
12	9814	47	19.833141006155
12	10098	48	15.572452670626
12	10382	49	11.072452670626
12	10721	50	11.093443299192
12	11002	51	11.438369285329
12	11401	52	11.055398794557
12	11948	53	11.347039231951
12	12395	54	11.095137245129
12	12933	55	11.291808270118
12	13470	56	11.230472785621
12	13928	57	11.11623054679
12	14635	58	11.349723729877
12	15469	59	11.273874737057
12	16134	60	11.438255539178
12	16972	61	11.198001727382
12	17802	62	11.270627533565
12	18553	63	11.136389888837
12	19558	64	11.281874516154
12	20647	65	11.282045015054
12	21535	66	11.233745193681
12	22775	67	11.093979625511
12	23877	68	11.251458343877
12	24743	69	11.07223970286
12	26405	70	11.220672470624
12	27803	71	11.384205187778
12	29041	72	11.225460654231
12	30686	73	11.162203894476
12	32091	74	11.138456831327
12	33310	75	11.281744112181
12	34952	76	11.157865231684
12	36317	77	11.115508669442
12	37547	78	11.194942221618
12	39188	79	11.434302531103
12	40576	80	11.27237835118
12	41783	81	11.301690262849
12	43419	82	11.327185049015
12	44799	83	11.249965430065
12	45893	84	11.053272964726
12	47283	85	11.092888703118
12	48519	86	11.309305441859
12	49615	87	11.421290744948
12	51008	88	11.355294636092
12	52242	89	11.335924205477
12	53333	90	11.416491703889
12	54717	91	11.325958074084
12	55954	92	11.049666843391
9	278	7	526.6
9	440	8	526.6
9	561	9	526.6
9	703	10	526.6
9	960	11	526.6
9	1136	12	526.6
9	1332	13	529.8
9	1598	14	529.8
9	1773	15	529.8
9	1977	16	529.8
9	2234	17	529.8
9	2419	18	529.8
9	2623	19	529.8
9	2889	20	529.8
9	3066	21	529.8
9	3270	22	529.8
9	3528	23	529.8
9	3713	24	529.8
9	3925	25	529.8
9	4191	26	529.8
9	4376	27	529.8
9	4579	28	529.8
9	4845	29	529.8
9	5021	30	529.8
9	5225	31	529.8
9	5483	32	529.8
9	5660	33	529.8
9	5864	34	529.8
9	6213	35	529.8
9	6497	36	529.8
9	6780	37	529.8
9	7128	38	529.8
9	7399	39	529.8
9	7672	40	529.8
9	8021	41	529.8
9	8293	42	529.8
9	8565	43	529.8
9	8912	44	529.8
9	9183	45	529.8
9	9464	46	529.8
9	9814	47	529.8
9	10098	48	529.8
9	10382	49	529.8
9	10721	50	529.8
9	11002	51	529.8
9	11401	52	529.8
9	11948	53	529.8
9	12395	54	529.8
9	12933	55	529.8
9	13470	56	529.8
9	13928	57	529.8
9	14635	58	529.8
9	15469	59	529.8
9	16134	60	529.8
9	16972	61	529.8
9	17802	62	529.8
9	18553	63	529.8
9	19558	64	529.8
9	20647	65	529.8
9	21535	66	529.8
9	22775	67	529.8
9	23877	68	529.8
9	24743	69	529.8
9	26405	70	529.8
9	27803	71	529.8
9	29041	72	529.8
9	30686	73	529.8
9	32091	74	529.8
9	33310	75	529.8
9	34952	76	529.8
9	36317	77	529.8
9	37547	78	529.8
9	39188	79	529.8
9	40576	80	529.8
9	41783	81	529.8
9	43419	82	529.8
9	44799	83	529.8
9	45893	84	529.8
9	47283	85	529.8
9	48519	86	529.8
9	49615	87	529.8
9	51008	88	529.8
9	52242	89	529.8
9	53333	90	529.8
9	54717	91	529.8
9	55954	92	529.8
8	278	7	30.1
8	440	8	30.869476683531
8	561	9	32.348017737083
8	703	10	34.314591272362
8	960	11	36.953575916588
8	1136	12	40.217196870875
8	1332	13	43.889528666716
8	1598	14	48.004716403875
8	1773	15	52.540913710557
8	1977	16	57.744319095463
8	2234	17	63.663961934112
8	2419	18	70.055113122799
8	2623	19	77.220562468562
8	2889	20	85.169333163742
8	3066	21	93.770060097333
8	3270	22	103.1277243604
8	3528	23	112.89137709634
8	3713	24	123.21700900458
8	3925	25	134.30285223741
8	4191	26	145.97676852616
8	4376	27	158.20729536815
8	4579	28	171.07029923797
8	4845	29	184.52114452077
8	5021	30	198.63782666391
8	5225	31	213.36137572397
8	5483	32	228.63591701249
8	5660	33	244.38037458677
8	5864	34	260.74957559248
8	6213	35	277.61677141143
8	6497	36	294.98961438825
8	6780	37	313.00646713385
8	7128	38	331.61610531425
8	7399	39	350.9298179769
8	7672	40	370.72062599985
8	8021	41	390.68073142552
8	8293	42	410.44494085423
8	8565	43	430.17756082825
8	8912	44	449.80382258481
8	9183	45	469.46049589206
8	9464	46	489.1549040784
8	9814	47	508.98804508455
8	10098	48	524.56049775518
8	10382	49	535.63295042581
8	10721	50	546.726393725
8	11002	51	558.16476301033
8	11401	52	569.22016180488
8	11948	53	580.56720103683
8	12395	54	591.66233828196
8	12933	55	602.95414655208
8	13470	56	614.1846193377
8	13928	57	625.30084988449
8	14635	58	636.65057361437
8	15469	59	647.92444835143
8	16134	60	659.3627038906
8	16972	61	670.56070561799
8	17802	62	681.83133315155
8	18553	63	692.96772304039
8	19558	64	704.24959755654
8	20647	65	715.5316425716
8	21535	66	726.76538776528
8	22775	67	737.85936739079
8	23877	68	749.11082573466
8	24743	69	760.18306543752
8	26405	70	771.40373790815
8	27803	71	782.78794309593
8	29041	72	794.01340375016
8	30686	73	805.17560764463
8	32091	74	816.31406447596
8	33310	75	827.59580858814
8	34952	76	838.75367381983
8	36317	77	849.86918248927
8	37547	78	861.06412471089
8	39188	79	872.49842724199
8	40576	80	883.77080559317
8	41783	81	895.07249585602
8	43419	82	906.39968090503
8	44799	83	917.6496463351
8	45893	84	928.70291929982
8	47283	85	939.79580800294
8	48519	86	951.1051134448
8	49615	87	962.52640418975
8	51008	88	973.88169882584
8	52242	89	985.21762303132
8	53333	90	996.63411473521
8	54717	91	1007.9600728093
8	55954	92	1019.0097396527
vector 65 scoretable.node[13].veinsmobility posx ETV
vector 66 scoretable.node[13].veinsmobility posy ETV
vector 67 scoretable.node[13].veinsmobility speed ETV
vector 68 scoretable.node[13].veinsmobility acceleration ETV
vector 69 scoretable.node[13].veinsmobility co2emission ETV
11	278	7	1.3009894656781
11	440	8	1.4924534382793
11	561	9	1.460150335788
11	703	10	1.544399351403
11	960	11	1.5963152462778
11	1136	12	1.6369017572644
11	1332	13	2.0709326028667
11	1598	14	1.807715918817
11	1773	15	1.9908475196165
11	1977	16	2.2701418653149
11	2234	17	2.1929629086519
11	2419	18	2.3875067195203
11	2623	19	2.4981236054858
11	2889	20	2.467508419784
11	3066	21	2.5416349349396
11	3270	22	2.7732794433898
11	3528	23	3.1378017833167
11	3713	24	2.9312592890035
11	3925	25	3.4600276186444
11	4191	26	3.9898195825504
11	4376	27	3.4089826945397
11	4579	28	4.0049396661598
11	4845	29	3.3471083612852
11	5021	30	4.6454255636629
11	5225	31	3.8721695630495
11	5483	32	3.7808747919628
11	5660	33	4.4942271603793
11	5864	34	4.8209398825495
11	6213	35	4.788634867586
11	6497	36	5.0441520429886
11	6780	37	5.0653339004174
11	7128	38	4.3582054574176
11	7399	39	5.1843257191368
11	7672	40	6.2155498907722
11	8021	41	4.8227582376366
11	8293	42	3.8488436156775
11	8565	43	1.4237795624669
11	8912	44	3.855858801403
11	9183	45	2.8902585150777
11	9464	46	0.973
11	9814	47	0.973
11	10098	48	0.973
11	10382	49	0.973
11	10721	50	0.973
11	11002	51	1.1140568144221
11	11401	52	1.1114101433831
11	11948	53	1.1101445694054
11	12395	54	1.1100173229362
11	12933	55	1.1100077668091
11	13470	56	0.973
11	13928	57	0.973
11	14635	58	0.973
11	15469	59	0.973
11	16134	60	0.973
11	16972	61	0.973
11	17802	62	0.973
11	18553	63	0.973
11	19558	64	0.973
11	20647	65	0.973
11	21535	66	0.973
11	22775	67	0.973
11	23877	68	0.973
11	24743	69	0.973
11	26405	70	0.973
11	27803	71	0.973
11	29041	72	0.973
11	30686	73	0.973
11	32091	74	0.973
11	33310	75	0.973
11	34952	76	0.973
11	36317	77	0.973
11	37547	78	0.973
11	39188	79	0.973
11	40576	80	0.973
11	41783	81	0.973
11	43419	82	0.973
11	44799	83	0.973
11	45893	84	0.973
11	47283	85	0.973
11	48519	86	0.973
11	49615	87	0.973
11	51008	88	0.973
11	52242	89	0.973
11	53333	90	0.973
11	54717	91	1.2903327184047
11	55954	92	1.4015551658058
11	57048	93	1.4755361372143
11	58296	94	1.5413007076323
11	59331	95	1.5849835271727
11	60298	96	1.7577671731179
11	61532	97	1.7453120391313
11	62565	98	1.9791733298289
11	63527	99	2.1676418064271
11	64765	100	2.4788904331934
11	65799	101	2.2008564959152
11	66763	102	2.5935820434513
11	68004	103	2.5631164906133
11	69037	104	2.5992053624618
11	69959	105	3.1635339473771
11	71173	106	3.0795111217292
11	72209	107	2.8149603996913
11	73171	108	3.3358396374694
11	74391	109	3.8725986541987
11	75422	110	1.8626843915535
11	76362	111	2.1797343889908
11	77582	112	1.5471510169276
11	78612	113	1.6450591948988
11	79552	114	1.851673501542
11	80792	115	1.5676105609364
11	81816	116	2.1127780794405
11	82762	117	1.3660983472399
11	83982	118	2.4614886572884
11	84997	119	2.0708237579569
11	85945	120	1.5739457650663
11	87186	121	2.0227688750534
11	88218	122	0.973
11	89181	123	2.6926292473562
11	90401	124	0.973
11	91438	125	1.8859062052553
11	92405	126	1.4935740435232
11	93645	127	2.502808429342
11	94686	128	0.973
11	95653	129	2.3662335688188
11	96873	130	1.3514652326496
11	97901	131	2.317518665513
11	98863	132	0.973
11	100085	133	2.4267276969549
11	101116	134	1.9913831850964
11	102060	135	1.5524373085246
11	103447	136	2.1493665933043
11	104589	137	0.973
11	105682	138	2.561002756806
11	107149	139	1.5466114325995
11	108319	140	1.1773348061225
11	109405	141	1.7373969939111
11	110867	142	2.3895171262807
11	112034	143	1.3863740377936
10	278	7	0.55706346780062
10	440	8	0.70498351361603
10	561	9	0.45622639507055
10	703	10	0.47028858903795
10	960	11	0.4428069261834
10	1136	12	0.41370031945407
10	1332	13	0.72833860879764
10	1598	14	0.41095955558121
10	1773	15	0.49656639751047
10	1977	16	0.6186203029938
10	2234	17	0.49933539386839
10	2419	18	0.55638301484287
10	2623	19	0.55706266183406
10	2889	20	0.48978939633817
10	3066	21	0.48239146042615
10	3270	22	0.54335466120392
10	3528	23	0.64478280795738
10	3713	24	0.51119270799682
10	3925	25	0.6638611247763
10	4191	26	0.78598539149389
10	4376	27	0.53523513572291
10	4579	28	0.68062021248043
10	4845	29	0.43778088074178
10	5021	30	0.77659500539303
10	5225	31	0.51198779167608
10	5483	32	0.4571756224148
10	5660	33	0.61136308731511
10	5864	34	0.65085838930681
10	6213	35	0.60119786653668
10	6497	36	0.62149352328852
10	6780	37	0.58776982855052
10	7128	38	0.40270133949816
10	7399	39	0.55421836003661
10	7672	40	0.7278773015365
10	8021	41	0.4118827688373
10	8293	42	0.20198784898967
10	8565	43	-0.28848301777616
10	8912	44	0.20695284800604
10	9183	45	0.0084371233358986
10	9464	46	-2.7146857403671
10	9814	47	-4.3907768777882
10	10098	48	-4.2815868671064
10	10382	49	-4.2427216204349
10	10721	50	-4.3452693392483
10	11002	51	-0.091015480606886
10	11401	52	-0.097317036175312
10	11948	53	-0.052819513251149
10	12395	54	-0.0037053018858641
10	12933	55	-0.00020470338800131
10	13470	56	-0.00016116832642049
10	13928	57	0
10	14635	58	0
10	15469	59	0
10	16134	60	0
10	16972	61	0
10	17802	62	0
10	18553	63	0
10	19558	64	0
10	20647	65	0
10	21535	66	0
10	22775	67	0
10	23877	68	0
10	24743	69	0
10	26405	70	0
10	27803	71	0
10	29041	72	0
10	30686	73	0
10	32091	74	0
10	33310	75	0
10	34952	76	0
10	36317	77	0
10	37547	78	0
10	39188	79	0
10	40576	80	0
10	41783	81	0
10	43419	82	0
10	44799	83	0
10	45893	84	0
10	47283	85	0
10	48519	86	0
10	49615	87	0
10	51008	88	0
10	52242	89	0
10	53333	90	0
10	54717	91	0.77061198316515
10	55954	92	0.65040357979015
10	57048	93	0.56286215344444
10	58296	94	0.51392425401136
10	59331	95	0.46229370236397
10	60298	96	0.55889465184882
10	61532	97	0.4568217520602
10	62565	98	0.5829822528176
10	63527	99	0.63453304888681
10	64765	100	0.74313198095188
10	65799	101	0.48850847501308
10	66763	102	0.65066369650885
10	68004	103	0.5664394531399
10	69037	104	0.53034655246884
10	69959	105	0.72694742400199
10	71173	106	0.62326672989875
10	72209	107	0.46956709986553
10	73171	108	0.62639440186322
10	74391	109	0.75783926835284
10	75422	110	0.023967745487921
10	76362	111	0.13367612119764
10	77582	112	-0.091824624966831
10	78612	113	-0.054903577081859
10	79552	114	0.01974329398945
10	80792	115	-0.081673700548707
10	81816	116	0.11343041947111
10	82762	117	-0.15480069257319
10	83982	118	0.23576511777937
10	84997	119	0.091510696057229
10	85945	120	-0.084096282813698
10	87186	121	0.07468627775088
10	88218	122	-0.28587878383696
10	89181	123	0.31271400125697
10	90401	124	-0.23175633223727
10	91438	125	0.031480399705471
10	92405	126	-0.10868033999577
10	93645	127	0.24813578445464
10	94686	128	-0.26316110314801
10	95653	129	0.20207906346768
10	96873	130	-0.16119802156463
10	97901	131	0.18347439579666
10	98863	132	-0.23518990781158
10	100085	133	0.2233699339442
10	101116	134	0.064198296424001
10	102060	135	-0.091005340684205
10	103447	136	0.11962754791602
10	104589	137	-0.29105811007321
10	105682	138	0.2679814546369
10	107149	139	-0.093184971902518
10	108319	140	-0.22405850477517
10	109405	141	-0.017345907352865
10	110867	142	0.21252837227657
10	112034	143	-0.14792731953785
7	194	6	0.48891903590411
7	278	7	1.0459825037047
7	440	8	1.7509660173208
7	561	9	2.2071924123913
7	703	10	2.6774810014293
7	960	11	3.1202879276127
7	1136	12	3.5339882470667
7	1332	13	4.2623268558644
7	1598	14	4.6732864114456
7	1773	15	5.1698528089561
7	1977	16	5.7884731119499
7	2234	17	6.2878085058182
7	2419	18	6.8441915206611
7	2623	19	7.4012541824952
7	2889	20	7.8910435788333
7	3066	21	8.3734350392595
7	3270	22	8.9167897004634
7	3528	23	9.5615725084208
7	3713	24	10.072765216418
7	3925	25	10.736626341194
7	4191	26	11.522611732688
7	4376	27	12.057846868411
7	4579	28	12.738467080891
7	4845	29	13.176247961633
7	5021	30	13.952842967026
7	5225	31	14.464830758702
7	5483	32	14.922006381117
7	5660	33	15.533369468432
7	5864	34	16.184227857739
7	6213	35	16.785425724275
7	6497	36	17.406919247564
7	6780	37	17.994689076114
7	7128	38	18.397390415613
7	7399	39	18.951608775649
7	7672	40	19.679486077186
7	8021	41	20.091368846023
7	8293	42	20.293356695013
7	8565	43	20.004873677237
7	8912	44	20.211826525243
7	9183	45	20.220263648578
7	9464	46	17.505577908211
7	9814	47	13.114801030423
7	10098	48	8.8332141633168
7	10382	49	4.5904925428819
7	10721	50	0.24522320363363
7	11002	51	0.15420772302675
7	11401	52	0.056890686851435
7	11948	53	0.0040711736002859
7	12395	54	0.00036587171442181
7	12933	55	0.00016116832642049
7	13470	56	0
7	13928	57	0
7	14635	58	0
7	15469	59	0
7	16134	60	0
7	16972	61	0
7	17802	62	0
7	18553	63	0
7	19558	64	0
7	20647	65	0
7	21535	66	0
7	22775	67	0
7	23877	68	0
7	24743	69	0
7	26405	70	0
7	27803	71	0
7	29041	72	0
7	30686	73	0
7	32091	74	0
7	33310	75	0
7	34952	76	0
7	36317	77	0
7	37547	78	0
7	39188	79	0
7	40576	80	0
7	41783	81	0
7	43419	82	0
7	44799	83	0
7	45893	84	0
7	47283	85	0
7	48519	86	0
7	49615	87	0
7	51008	88	0
7	52242	89	0
7	53333	90	0
7	54717	91	0.77061198316515
7	55954	92	1.4210155629553
7	57048	93	1.9838777163997
7	58296	94	2.4978019704111
7	59331	95	2.9600956727751
7	60298	96	3.5189903246239
7	61532	97	3.9758120766841
7	62565	98	4.5587943295017
7	63527	99	5.1933273783885
7	64765	100	5.9364593593404
7	65799	101	6.4249678343534
7	66763	102	7.0756315308623
7	68004	103	7.6420709840022
7	69037	104	8.172417536471
7	69959	105	8.899364960473
7	71173	106	9.5226316903718
7	72209	107	9.9921987902373
7	73171	108	10.618593192101
7	74391	109	11.376432460453
7	75422	110	11.400400205941
7	76362	111	11.534076327139
7	77582	112	11.442251702172
7	78612	113	11.38734812509
7	79552	114	11.40709141908
7	80792	115	11.325417718531
7	81816	116	11.438848138002
7	82762	117	11.284047445429
7	83982	118	11.519812563208
7	84997	119	11.611323259266
7	85945	120	11.527226976452
7	87186	121	11.601913254203
7	88218	122	11.316034470366
7	89181	123	11.628748471623
7	90401	124	11.396992139385
7	91438	125	11.428472539091
7	92405	126	11.319792199095
7	93645	127	11.56792798355
7	94686	128	11.304766880402
7	95653	129	11.506845943869
7	96873	130	11.345647922305
7	97901	131	11.529122318101
7	98863	132	11.29393241029
7	100085	133	11.517302344234
7	101116	134	11.581500640658
7	102060	135	11.490495299974
7	103447	136	11.61012284789
7	104589	137	11.319064737817
7	105682	138	11.587046192454
7	107149	139	11.493861220551
7	108319	140	11.269802715776
7	109405	141	11.252456808423
7	110867	142	11.4649851807
7	112034	143	11.317057861162
6	126	5	30.1
6	194	6	30.588919035904
6	278	7	31.634901539609
6	440	8	33.38586755693
6	561	9	35.593059969321
6	703	10	38.27054097075
6	960	11	41.390828898363
6	1136	12	44.92481714543
6	1332	13	49.187144001294
6	1598	14	53.86043041274
6	1773	15	59.030283221696
6	1977	16	64.818756333645
6	2234	17	71.106564839464
6	2419	18	77.950756360125
6	2623	19	85.35201054262
6	2889	20	93.243054121453
6	3066	21	101.61648916071
6	3270	22	110.53327886118
6	3528	23	120.0948513696
6	3713	24	130.16761658601
6	3925	25	140.90424292721
6	4191	26	152.4268546599
6	4376	27	164.48470152831
6	4579	28	177.2231686092
6	4845	29	190.39941657083
6	5021	30	204.35225953786
6	5225	31	218.81709029656
6	5483	32	233.73909667768
6	5660	33	249.27246614611
6	5864	34	265.45669400385
6	6213	35	282.24211972812
6	6497	36	299.64903897569
6	6780	37	317.6437280518
6	7128	38	336.04111846741
6	7399	39	354.99272724306
6	7672	40	374.67221332025
6	8021	41	394.76358216627
6	8293	42	415.05693886128
6	8565	43	435.06181253852
6	8912	44	455.27363906376
6	9183	45	475.49390271234
6	9464	46	492.99948062055
6	9814	47	506.11428165098
6	10098	48	514.94749581429
6	10382	49	519.53798835717
6	10721	50	519.78321156081
6	11002	51	519.93741928384
6	11401	52	519.99430997069
6	11948	53	519.99838114429
6	12395	54	519.998747016
6	12933	55	519.99890818433
6	13470	56	519.99890818433
6	13928	57	519.99890818433
6	14635	58	519.99890818433
6	15469	59	519.99890818433
6	16134	60	519.99890818433
6	16972	61	519.99890818433
6	17802	62	519.99890818433
6	18553	63	519.99890818433
6	19558	64	519.99890818433
6	20647	65	519.99890818433
6	21535	66	519.99890818433
6	22775	67	519.99890818433
6	23877	68	519.99890818433
6	24743	69	519.99890818433
6	26405	70	519.99890818433
6	27803	71	519.99890818433
6	29041	72	519.99890818433
6	30686	73	519.99890818433
6	32091	74	519.99890818433
6	33310	75	519.99890818433
6	34952	76	519.99890818433
6	36317	77	519.99890818433
6	37547	78	519.99890818433
6	39188	79	519.99890818433
6	40576	80	519.99890818433
6	41783	81	519.99890818433
6	43419	82	519.99890818433
6	44799	83	519.99890818433
6	45893	84	519.99890818433
6	47283	85	519.99890818433
6	48519	86	519.99890818433
6	49615	87	519.99890818433
6	51008	88	519.99890818433
6	52242	89	519.99890818433
6	53333	90	519.99890818433
6	54717	91	520.76952016749
6	55954	92	522.19053573045
6	57048	93	524.17441344685
6	58296	94	526.67221541726
6	59331	95	529.63231109003
6	60298	96	533.15130141466
6	61532	97	537.12711349134
6	62565	98	541.68590782084
6	63527	99	546.87923519923
6	64765	100	552.81569455857
6	65799	101	559.24066239293
6	66763	102	566.31629392379
6	68004	103	573.95836490779
6	69037	104	582.13078244426
6	69959	105	591.03014740473
6	71173	106	600.55277909511
6	72209	107	610.54497788534
6	73171	108	621.16357107744
6	74391	109	632.5400035379
6	75422	110	643.94040374384
6	76362	111	655.47448007098
6	77582	112	666.91673177315
6	78612	113	678.30407989824
6	79552	114	689.71117131732
6	80792	115	701.03658903585
6	81816	116	712.47543717385
6	82762	117	723.75948461928
6	83982	118	735.27929718249
6	84997	119	746.89062044176
6	85945	120	758.41784741821
6	87186	121	770.01976067241
6	88218	122	781.33579514278
6	89181	123	792.9645436144
6	90401	124	804.36153575378
6	91438	125	815.79000829287
6	92405	126	827.10980049197
6	93645	127	838.67772847552
6	94686	128	849.98249535592
6	95653	129	861.48934129979
6	96873	130	872.8349892221
6	97901	131	884.3641115402
6	98863	132	895.65804395049
6	100085	133	907.17534629472
6	101116	134	918.75684693538
6	102060	135	930.24734223535
6	103447	136	941.85746508324
6	104589	137	953.17652982106
6	105682	138	964.76357601351
6	107149	139	976.25743723406
6	108319	140	987.52723994984
6	109405	141	998.77969675826
6	110867	142	1010.244681939
6	112034	143	1021.5617398001
5	126	5	523.4
5	194	6	523.4
5	278	7	523.4
5	440	8	523.4
5	561	9	523.4
5	703	10	523.4
5	960	11	523.4
5	1136	12	523.4
5	1332	13	523.4
5	1598	14	523.4
5	1773	15	523.4
5	1977	16	523.4
5	2234	17	523.4
5	2419	18	523.4
5	2623	19	523.4
5	2889	20	523.4
5	3066	21	523.4
5	3270	22	523.4
5	3528	23	523.4
5	3713	24	523.4
5	3925	25	523.4
5	4191	26	523.4
5	4376	27	523.4
5	4579	28	523.4
5	4845	29	523.4
5	5021	30	523.4
5	5225	31	523.4
5	5483	32	523.4
5	5660	33	523.4
5	5864	34	523.4
5	6213	35	523.4
5	6497	36	523.4
5	6780	37	523.4
5	7128	38	523.4
5	7399	39	523.4
5	7672	40	523.4
5	8021	41	523.4
5	8293	42	523.4
5	8565	43	520.2
5	8912	44	520.2
5	9183	45	520.2
5	9464	46	520.2
5	9814	47	520.2
5	10098	48	520.2
5	10382	49	520.2
5	10721	50	520.2
5	11002	51	520.2
5	11401	52	520.2
5	11948	53	520.2
5	12395	54	520.2
5	12933	55	520.2
5	13470	56	520.2
5	13928	57	520.2
5	14635	58	520.2
5	15469	59	520.2
5	16134	60	520.2
5	16972	61	520.2
5	17802	62	520.2
5	18553	63	520.2
5	19558	64	520.2
5	20647	65	520.2
5	21535	66	520.2
5	22775	67	520.2
5	23877	68	520.2
5	24743	69	520.2
5	26405	70	520.2
5	27803	71	520.2
5	29041	72	520.2
5	30686	73	520.2
5	32091	74	520.2
5	33310	75	520.2
5	34952	76	520.2
5	36317	77	520.2
5	37547	78	520.2
5	39188	79	520.2
5	40576	80	520.2
5	41783	81	520.2
5	43419	82	520.2
5	44799	83	520.2
5	45893	84	520.2
5	47283	85	520.2
5	48519	86	520.2
5	49615	87	520.2
5	51008	88	520.2
5	52242	89	520.2
5	53333	90	520.2
5	54717	91	520.2
5	55954	92	520.2
5	57048	93	520.2
5	58296	94	520.2
5	59331	95	520.2
5	60298	96	520.2
5	61532	97	520.2
5	62565	98	520.2
5	63527	99	520.2
5	64765	100	520.2
5	65799	101	520.2
5	66763	102	520.2
5	68004	103	520.2
5	69037	104	520.2
5	69959	105	520.2
5	71173	106	520.2
5	72209	107	520.2
5	73171	108	520.2
5	74391	109	520.2
5	75422	110	520.2
5	76362	111	520.2
5	77582	112	520.2
5	78612	113	520.2
5	79552	114	520.2
5	80792	115	520.2
5	81816	116	520.2
5	82762	117	520.2
5	83982	118	520.2
5	84997	119	520.2
5	85945	120	520.2
5	87186	121	520.2
5	88218	122	520.2
5	89181	123	520.2
5	90401	124	520.2
5	91438	125	520.2
5	92405	126	520.2
5	93645	127	520.2
5	94686	128	520.2
5	95653	129	520.2
5	96873	130	520.2
5	97901	131	520.2
5	98863	132	520.2
5	100085	133	520.2
5	101116	134	520.2
5	102060	135	520.2
5	103447	136	520.2
5	104589	137	520.2
5	105682	138	520.2
5	107149	139	520.2
5	108319	140	520.2
5	109405	141	520.2
5	110867	142	520.2
5	112034	143	520.2
19	1136	12	1.2445665604936
19	1332	13	1.5049255768513
19	1598	14	1.4197247790602
19	1773	15	1.7547765483947
19	1977	16	1.863498139719
19	2234	17	1.8585703102696
19	2419	18	1.7915524402359
19	2623	19	1.9068534948124
19	2889	20	2.5111725539859
19	3066	21	2.3425769441065
19	3270	22	2.4395919984893
19	3528	23	2.6104775027082
19	3713	24	2.4959711962634
19	3925	25	3.1455537866279
19	4191	26	2.7299643591788
19	4376	27	3.6024277193185
19	4579	28	3.6842262843655
19	4845	29	3.903098614104
19	5021	30	3.8569570693774
19	5225	31	3.5479551378521
19	5483	32	3.9424003002688
19	5660	33	3.599455367405
19	5864	34	4.485305890798
19	6213	35	3.9817502324653
19	6497	36	4.1494292979951
19	6780	37	4.8980533457043
19	7128	38	5.0765843946391
19	7399	39	4.1230549040557
19	7672	40	4.8584326734053
19	8021	41	4.3991137767672
19	8293	42	6.1017933540666
19	8565	43	5.165244164787
19	8912	44	2.9219352681197
19	9183	45	2.090621511819
19	9464	46	3.9213760101279
19	9814	47	2.5139893132497
19	10098	48	2.5200897743032
19	10382	49	1.8200725909571
19	10721	50	0.973
19	11002	51	0.973
19	11401	52	0.973
19	11948	53	0.973
19	12395	54	0.973
19	12933	55	0.973
19	13470	56	1.1100434583064
19	13928	57	0.973
19	14635	58	0.973
19	15469	59	0.973
19	16134	60	0.973
19	16972	61	0.973
19	17802	62	0.973
19	18553	63	0.973
19	19558	64	0.973
19	20647	65	0.973
19	21535	66	0.973
19	22775	67	0.973
19	23877	68	0.973
19	24743	69	0.973
19	26405	70	0.973
19	27803	71	0.973
19	29041	72	0.973
19	30686	73	0.973
19	32091	74	0.973
19	33310	75	0.973
19	34952	76	0.973
19	36317	77	0.973
19	37547	78	0.973
19	39188	79	0.973
19	40576	80	0.973
19	41783	81	0.973
19	43419	82	0.973
19	44799	83	0.973
19	45893	84	0.973
19	47283	85	0.973
19	48519	86	0.973
19	49615	87	0.973
19	51008	88	0.973
19	52242	89	0.973
19	53333	90	0.973
19	54717	91	1.2774172669282
19	55954	92	1.2875544253596
19	57048	93	1.4724684579026
19	58296	94	1.4302574160262
19	59331	95	1.5777577471384
19	60298	96	1.5877599531748
19	61532	97	2.06579654298
19	62565	98	2.1638867838427
19	63527	99	2.4009334196156
19	64765	100	2.6235165882312
19	65799	101	2.3364807302145
19	66763	102	2.8143454323184
19	68004	103	2.3578488927997
19	69037	104	3.1742995130061
19	69959	105	3.2451410416962
19	71173	106	2.7177593177721
19	72209	107	2.8732054827987
19	73171	108	3.8025247572424
19	74391	109	1.3937759053889
19	75422	110	1.949627386076
19	76362	111	1.9786389380866
19	77582	112	1.4780415934668
19	78612	113	1.6828034448421
19	79552	114	2.0542108614399
19	80792	115	2.2380540970592
19	81816	116	0.973
19	82762	117	1.8768996689833
19	83982	118	1.7218512475119
19	84997	119	2.4945451264637
19	85945	120	0.973
19	87186	121	2.7069105168834
19	88218	122	0.973
19	89181	123	2.4989758036795
19	90401	124	1.2728108199421
19	91438	125	2.4520877428809
19	92405	126	1.9301320135593
19	93645	127	0.973
19	94686	128	1.5856657504379
19	95653	129	1.8684904253335
19	96873	130	2.2096032198736
19	97901	131	1.8464832039072
19	98863	132	1.9477441842848
19	100085	133	1.6373460522812
19	101116	134	1.9038597160347
19	102060	135	1.8830325977882
19	103447	136	0.973
19	104589	137	2.6296311973486
19	105682	138	1.7045773680438
19	107149	139	0.973
19	108319	140	1.6954756004302
19	109405	141	1.9534417629787
19	110867	142	1.8951585843338
19	112034	143	2.2487464450188
19	113132	144	0.973
18	1136	12	0.43971405737102
18	1332	13	0.78663142798468
18	1598	14	0.4172202674672
18	1773	15	0.74511627051979
18	1977	16	0.68646866083145
18	2234	17	0.55756672844291
18	2419	18	0.42230994580314
18	2623	19	0.45890578394756
18	2889	20	0.7990963043645
18	3066	21	0.59150958927348
18	3270	22	0.57918494660407
18	3528	23	0.60584903368726
18	3713	24	0.49274633955211
18	3925	25	0.73571329843253
18	4191	26	0.49417581968009
18	4376	27	0.79167608069256
18	4579	28	0.74591593062505
18	4845	29	0.75349079091102
18	5021	30	0.67604096829891
18	5225	31	0.53141894089058
18	5483	32	0.61150808697566
18	5660	33	0.47353268042207
18	5864	34	0.68416528468952
18	6213	35	0.50674960901961
18	6497	36	0.51895105801523
18	6780	37	0.66897221170366
18	7128	38	0.66614098744467
18	7399	39	0.40877676857636
18	7672	40	0.55016715629026
18	8021	41	0.41987459026277
18	8293	42	0.75135848028586
18	8565	43	0.51584662049385
18	8912	44	0.037662077415735
18	9183	45	-0.13524722484872
18	9464	46	0.24474491635338
18	9814	47	-0.05066808750853
18	10098	48	-0.047927218489349
18	10382	49	-0.19200797214679
18	10721	50	-2.5626478629591
18	11002	51	-4.5
18	11401	52	-4.5
18	11948	53	-4.1770289625972
18	12395	54	-3.4511202588834
18	12933	55	-0.18299209035881
18	13470	56	-0.0011571153020371
18	13928	57	-0.0009061150469809
18	14635	58	0
18	15469	59	0
18	16134	60	0
18	16972	61	0
18	17802	62	0
18	18553	63	0
18	19558	64	0
18	20647	65	0
18	21535	66	0
18	22775	67	0
18	23877	68	0
18	24743	69	0
18	26405	70	0
18	27803	71	0
18	29041	72	0
18	30686	73	0
18	32091	74	0
18	33310	75	0
18	34952	76	0
18	36317	77	0
18	37547	78	0
18	39188	79	0
18	40576	80	0
18	41783	81	0
18	43419	82	0
18	44799	83	0
18	45893	84	0
18	47283	85	0
18	48519	86	0
18	49615	87	0
18	51008	88	0
18	52242	89	0
18	53333	90	0
18	54717	91	0.73928533550352
18	55954	92	0.42960220640525
18	57048	93	0.63319120062515
18	58296	94	0.40112607674673
18	59331	95	0.51187020428479
18	60298	96	0.42697705551982
18	61532	97	0.7999542475678
18	62565	98	0.72789212232456
18	63527	99	0.77267726073042
18	64765	100	0.79220990389585
18	65799	101	0.53411187278107
18	66763	102	0.72235375130549
18	68004	103	0.42948681600392
18	69037	104	0.75792993837968
18	69959	105	0.70971491113305
18	71173	106	0.4414637003094
18	72209	107	0.46952745942399
18	73171	108	0.76287500439212
18	74391	109	-0.13812113676046
18	75422	110	0.07037850273773
18	76362	111	0.0783453614451
18	77582	112	-0.10699607469141
18	78612	113	-0.028706212341786
18	79552	114	0.10779535900801
18	80792	115	0.16903169332072
18	81816	116	-0.22869983883575
18	82762	117	0.041800879500807
18	83982	118	-0.016070490796119
18	84997	119	0.26081065237522
18	85945	120	-0.37983495229855
18	87186	121	0.34133349191397
18	88218	122	-0.34873673943803
18	89181	123	0.26888472093269
18	90401	124	-0.18469435637817
18	91438	125	0.24807635545731
18	92405	126	0.053105215914547
18	93645	127	-0.29353212686256
18	94686	128	-0.064919658191503
18	95653	129	0.041201351489873
18	96873	130	0.16294522965327
18	97901	131	0.026515113934876
18	98863	132	0.061968715954572
18	100085	133	-0.051638438086957
18	101116	134	0.04591576885432
18	102060	135	0.036939260456711
18	103447	136	-0.30093720396981
18	104589	137	0.31202043574303
18	105682	138	-0.02847669282928
18	107149	139	-0.22303242171183
18	108319	140	-0.024841871205718
18	109405	141	0.070114887412638
18	110867	142	0.04657486230135
18	112034	143	0.1709730245173
18	113132	144	-0.29105421165004
17	960	11	0.43250119481236
17	1136	12	0.87221525218338
17	1332	13	1.6588466801681
17	1598	14	2.0760669476353
17	1773	15	2.8211832181551
17	1977	16	3.5076518789865
17	2234	17	4.0652186074294
17	2419	18	4.4875285532326
17	2623	19	4.9464343371801
17	2889	20	5.7455306415446
17	3066	21	6.3370402308181
17	3270	22	6.9162251774222
17	3528	23	7.5220742111094
17	3713	24	8.0148205506615
17	3925	25	8.7505338490941
17	4191	26	9.2447096687742
17	4376	27	10.036385749467
17	4579	28	10.782301680092
17	4845	29	11.535792471003
17	5021	30	12.211833439302
17	5225	31	12.743252380192
17	5483	32	13.354760467168
17	5660	33	13.82829314759
17	5864	34	14.51245843228
17	6213	35	15.019208041299
17	6497	36	15.538159099314
17	6780	37	16.207131311018
17	7128	38	16.873272298463
17	7399	39	17.282049067039
17	7672	40	17.832216223329
17	8021	41	18.252090813592
17	8293	42	19.003449293878
17	8565	43	19.519295914372
17	8912	44	19.556957991788
17	9183	45	19.421710766939
17	9464	46	19.666455683292
17	9814	47	19.615787595784
17	10098	48	19.567860377294
17	10382	49	19.375852405148
17	10721	50	16.813204542188
17	11002	51	12.313204542188
17	11401	52	7.8132045421884
17	11948	53	3.6361755795912
17	12395	54	0.18505532070782
17	12933	55	0.002063230349018
17	13470	56	0.0009061150469809
17	13928	57	0
17	14635	58	0
17	15469	59	0
17	16134	60	0
17	16972	61	0
17	17802	62	0
17	18553	63	0
17	19558	64	0
17	20647	65	0
17	21535	66	0
17	22775	67	0
17	23877	68	0
17	24743	69	0
17	26405	70	0
17	27803	71	0
17	29041	72	0
17	30686	73	0
17	32091	74	0
17	33310	75	0
17	34952	76	0
17	36317	77	0
17	37547	78	0
17	39188	79	0
17	40576	80	0
17	41783	81	0
17	43419	82	0
17	44799	83	0
17	45893	84	0
17	47283	85	0
17	48519	86	0
17	49615	87	0
17	51008	88	0
17	52242	89	0
17	53333	90	0
17	54717	91	0.73928533550352
17	55954	92	1.1688875419088
17	57048	93	1.8020787425339
17	58296	94	2.2032048192807
17	59331	95	2.7150750235654
17	60298	96	3.1420520790853
17	61532	97	3.9420063266531
17	62565	98	4.6698984489776
17	63527	99	5.442575709708
17	64765	100	6.2347856136039
17	65799	101	6.768897486385
17	66763	102	7.4912512376904
17	68004	103	7.9207380536944
17	69037	104	8.678667992074
17	69959	105	9.3883829032071
17	71173	106	9.8298466035165
17	72209	107	10.29937406294
17	73171	108	11.062249067333
17	74391	109	10.924127930572
17	75422	110	10.99450643331
17	76362	111	11.072851794755
17	77582	112	10.965855720064
17	78612	113	10.937149507722
17	79552	114	11.04494486673
17	80792	115	11.213976560051
17	81816	116	10.985276721215
17	82762	117	11.027077600716
17	83982	118	11.011007109919
17	84997	119	11.271817762295
17	85945	120	10.891982809996
17	87186	121	11.23331630191
17	88218	122	10.884579562472
17	89181	123	11.153464283405
17	90401	124	10.968769927027
17	91438	125	11.216846282484
17	92405	126	11.269951498398
17	93645	127	10.976419371536
17	94686	128	10.911499713344
17	95653	129	10.952701064834
17	96873	130	11.115646294488
17	97901	131	11.142161408422
17	98863	132	11.204130124377
17	100085	133	11.15249168629
17	101116	134	11.198407455144
17	102060	135	11.235346715601
17	103447	136	10.934409511631
17	104589	137	11.246429947374
17	105682	138	11.217953254545
17	107149	139	10.994920832833
17	108319	140	10.970078961627
17	109405	141	11.04019384904
17	110867	142	11.086768711341
17	112034	143	11.257741735859
17	113132	144	10.966687524209
16	703	10	30.1
16	960	11	30.532501194812
16	1136	12	31.404716446996
16	1332	13	33.063563127164
16	1598	14	35.139630074799
16	1773	15	37.960813292954
16	1977	16	41.468465171941
16	2234	17	45.53368377937
16	2419	18	50.021212332603
16	2623	19	54.967646669783
16	2889	20	60.713177311327
16	3066	21	67.050217542145
16	3270	22	73.966442719568
16	3528	23	81.488516930677
16	3713	24	89.503337481339
16	3925	25	98.253871330433
16	4191	26	107.49858099921
16	4376	27	117.53496674867
16	4579	28	128.31726842877
16	4845	29	139.85306089977
16	5021	30	152.06489433907
16	5225	31	164.80814671926
16	5483	32	178.16290718643
16	5660	33	191.99120033402
16	5864	34	206.5036587663
16	6213	35	221.5228668076
16	6497	36	237.06102590691
16	6780	37	253.26815721793
16	7128	38	270.14142951639
16	7399	39	287.42347858343
16	7672	40	305.25569480676
16	8021	41	323.50778562035
16	8293	42	342.51123491423
16	8565	43	362.0305308286
16	8912	44	381.58748882039
16	9183	45	401.00919958733
16	9464	46	420.67565527062
16	9814	47	440.29144286641
16	10098	48	459.8593032437
16	10382	49	479.23515564885
16	10721	50	496.04836019104
16	11002	51	508.36156473322
16	11401	52	516.17476927541
16	11948	53	519.810944855
16	12395	54	519.99600017571
16	12933	55	519.99806340606
16	13470	56	519.99896952111
16	13928	57	519.99896952111
16	14635	58	519.99896952111
16	15469	59	519.99896952111
16	16134	60	519.99896952111
16	16972	61	519.99896952111
16	17802	62	519.99896952111
16	18553	63	519.99896952111
16	19558	64	519.99896952111
16	20647	65	519.99896952111
16	21535	66	519.99896952111
16	22775	67	519.99896952111
16	23877	68	519.99896952111
16	24743	69	519.99896952111
16	26405	70	519.99896952111
16	27803	71	519.99896952111
16	29041	72	519.99896952111
16	30686	73	519.99896952111
16	32091	74	519.99896952111
16	33310	75	519.99896952111
16	34952	76	519.99896952111
16	36317	77	519.99896952111
16	37547	78	519.99896952111
16	39188	79	519.99896952111
16	40576	80	519.99896952111
16	41783	81	519.99896952111
16	43419	82	519.99896952111
16	44799	83	519.99896952111
16	45893	84	519.99896952111
16	47283	85	519.99896952111
16	48519	86	519.99896952111
16	49615	87	519.99896952111
16	51008	88	519.99896952111
16	52242	89	519.99896952111
16	53333	90	519.99896952111
16	54717	91	520.73825485661
16	55954	92	521.90714239852
16	57048	93	523.70922114105
16	58296	94	525.91242596034
16	59331	95	528.6275009839
16	60298	96	531.76955306299
16	61532	97	535.71155938964
16	62565	98	540.38145783862
16	63527	99	545.82403354832
16	64765	100	552.05881916193
16	65799	101	558.82771664831
16	66763	102	566.318967886
16	68004	103	574.2397059397
16	69037	104	582.91837393177
16	69959	105	592.30675683498
16	71173	106	602.1366034385
16	72209	107	612.43597750144
16	73171	108	623.49822656877
16	74391	109	634.42235449934
16	75422	110	645.41686093265
16	76362	111	656.48971272741
16	77582	112	667.45556844747
16	78612	113	678.39271795519
16	79552	114	689.43766282192
16	80792	115	700.65163938197
16	81816	116	711.63691610319
16	82762	117	722.6639937039
16	83982	118	733.67500081382
16	84997	119	744.94681857612
16	85945	120	755.83880138611
16	87186	121	767.07211768802
16	88218	122	777.95669725049
16	89181	123	789.1101615339
16	90401	124	800.07893146093
16	91438	125	811.29577774341
16	92405	126	822.56572924181
16	93645	127	833.54214861334
16	94686	128	844.45364832669
16	95653	129	855.40634939152
16	96873	130	866.52199568601
16	97901	131	877.66415709443
16	98863	132	888.86828721881
16	100085	133	900.0207789051
16	101116	134	911.21918636024
16	102060	135	922.45453307584
16	103447	136	933.38894258748
16	104589	137	944.63537253485
16	105682	138	955.8533257894
16	107149	139	966.84824662223
16	108319	140	977.81832558386
16	109405	141	988.8585194329
16	110867	142	999.94528814424
16	112034	143	1011.2030298801
16	113132	144	1022.1697174043
15	703	10	520.2
15	960	11	520.2
15	1136	12	520.2
15	1332	13	520.2
15	1598	14	520.2
15	1773	15	520.2
15	1977	16	520.2
15	2234	17	520.2
15	2419	18	520.2
15	2623	19	520.2
15	2889	20	520.2
15	3066	21	520.2
15	3270	22	520.2
15	3528	23	520.2
15	3713	24	520.2
15	3925	25	520.2
15	4191	26	520.2
15	4376	27	520.2
15	4579	28	520.2
15	4845	29	520.2
15	5021	30	520.2
15	5225	31	520.2
15	5483	32	520.2
15	5660	33	520.2
15	5864	34	520.2
15	6213	35	520.2
15	6497	36	520.2
15	6780	37	520.2
15	7128	38	520.2
15	7399	39	520.2
15	7672	40	520.2
15	8021	41	520.2
15	8293	42	520.2
15	8565	43	520.2
15	8912	44	520.2
15	9183	45	520.2
15	9464	46	520.2
15	9814	47	520.2
15	10098	48	520.2
15	10382	49	523.4
15	10721	50	523.4
15	11002	51	523.4
15	11401	52	523.4
15	11948	53	523.4
15	12395	54	523.4
15	12933	55	523.4
15	13470	56	523.4
15	13928	57	523.4
15	14635	58	523.4
15	15469	59	523.4
15	16134	60	523.4
15	16972	61	523.4
15	17802	62	523.4
15	18553	63	523.4
15	19558	64	523.4
15	20647	65	523.4
15	21535	66	523.4
15	22775	67	523.4
15	23877	68	523.4
15	24743	69	523.4
15	26405	70	523.4
15	27803	71	523.4
15	29041	72	523.4
15	30686	73	523.4
15	32091	74	523.4
15	33310	75	523.4
15	34952	76	523.4
15	36317	77	523.4
15	37547	78	523.4
15	39188	79	523.4
15	40576	80	523.4
15	41783	81	523.4
15	43419	82	523.4
15	44799	83	523.4
15	45893	84	523.4
15	47283	85	523.4
15	48519	86	523.4
15	49615	87	523.4
15	51008	88	523.4
15	52242	89	523.4
15	53333	90	523.4
15	54717	91	523.4
15	55954	92	523.4
15	57048	93	523.4
15	58296	94	523.4
15	59331	95	523.4
15	60298	96	523.4
15	61532	97	523.4
15	62565	98	523.4
15	63527	99	523.4
15	64765	100	523.4
15	65799	101	523.4
15	66763	102	523.4
15	68004	103	523.4
15	69037	104	523.4
15	69959	105	523.4
15	71173	106	523.4
15	72209	107	523.4
15	73171	108	523.4
15	74391	109	523.4
15	75422	110	523.4
15	76362	111	523.4
15	77582	112	523.4
15	78612	113	523.4
15	79552	114	523.4
15	80792	115	523.4
15	81816	116	523.4
15	82762	117	523.4
15	83982	118	523.4
15	84997	119	523.4
15	85945	120	523.4
15	87186	121	523.4
15	88218	122	523.4
15	89181	123	523.4
15	90401	124	523.4
15	91438	125	523.4
15	92405	126	523.4
15	93645	127	523.4
15	94686	128	523.4
15	95653	129	523.4
15	96873	130	523.4
15	97901	131	523.4
15	98863	132	523.4
15	100085	133	523.4
15	101116	134	523.4
15	102060	135	523.4
15	103447	136	523.4
15	104589	137	523.4
15	105682	138	523.4
15	107149	139	523.4
15	108319	140	523.4
15	109405	141	523.4
15	110867	142	523.4
15	112034	143	523.4
15	113132	144	520.2
vector 70 scoretable.node[14].veinsmobility posx ETV
vector 71 scoretable.node[14].veinsmobility posy ETV
vector 72 scoretable.node[14].veinsmobility speed ETV
vector 73 scoretable.node[14].veinsmobility acceleration ETV
vector 74 scoretable.node[14].veinsmobility co2emission ETV
vector 75 scoretable.node[15].veinsmobility posx ETV
vector 76 scoretable.node[15].veinsmobility posy ETV
vector 77 scoretable.node[15].veinsmobility speed ETV
vector 78 scoretable.node[15].veinsmobility acceleration ETV
vector 79 scoretable.node[15].veinsmobility co2emission ETV
24	6497	36	1.3752986796934
24	6780	37	1.5021349537479
24	7128	38	1.7559997244325
24	7399	39	1.8030186954979
24	7672	40	1.6771747926262
24	8021	41	2.1259672200473
24	8293	42	1.9224652543153
24	8565	43	2.2561019492225
24	8912	44	2.2541750015128
24	9183	45	2.0874615590372
24	9464	46	2.7048509422666
24	9814	47	2.7364461710422
24	10098	48	2.4219021407866
24	10382	49	3.0134672210516
24	10721	50	3.0692047009758
24	11002	51	3.6748159278336
24	11401	52	3.8287774435408
24	11948	53	3.2380757465014
24	12395	54	3.4655668004838
24	12933	55	4.4023252697483
24	13470	56	4.2395654820408
24	13928	57	4.5389903927808
24	14635	58	4.998853527376
24	15469	59	4.4671787041512
24	16134	60	4.8016847461628
24	16972	61	5.6276341825614
24	17802	62	1.5457975734398
24	18553	63	1.9890137020454
24	19558	64	3.5384859307263
24	20647	65	2.1223974319982
24	21535	66	2.5276697543582
24	22775	67	1.7247898584848
24	23877	68	2.4627748176642
24	24743	69	2.5322876790927
24	26405	70	2.2809614184122
24	27803	71	2.1160677294376
24	29041	72	3.3069223242424
24	30686	73	2.4110949585812
24	32091	74	1.1859896256986
24	33310	75	0.973
24	34952	76	0.973
24	36317	77	0.973
24	37547	78	0.973
24	39188	79	0.973
24	40576	80	0.973
24	41783	81	1.1103585997409
24	43419	82	1.1100123733409
24	44799	83	0.973
24	45893	84	0.973
24	47283	85	0.973
24	48519	86	0.973
24	49615	87	0.973
24	51008	88	0.973
24	52242	89	0.973
24	53333	90	0.973
24	54717	91	0.973
24	55954	92	1.2519038458628
24	57048	93	1.2235248057417
24	58296	94	1.3080973805007
24	59331	95	1.5621591132008
24	60298	96	1.615246597134
24	61532	97	1.714185045312
24	62565	98	2.0252799926273
24	63527	99	2.1058980498451
24	64765	100	1.8537585561013
24	65799	101	2.2405620601304
24	66763	102	2.1897462469022
24	68004	103	2.5054399502002
24	69037	104	2.5887889337852
24	69959	105	3.1309041456815
24	71173	106	2.8847033987299
24	72209	107	2.5715402200471
24	73171	108	2.1682719335829
24	74391	109	1.759793241555
24	75422	110	2.2522697360239
24	76362	111	0.973
24	77582	112	2.4499626883118
24	78612	113	1.6774705627134
24	79552	114	0.973
24	80792	115	2.3826963673881
24	81816	116	0.973
24	82762	117	1.9219618294739
24	83982	118	1.4434081813386
24	84997	119	1.8696555105735
24	85945	120	1.5879238613386
24	87186	121	1.9834784520377
24	88218	122	0.973
24	89181	123	2.0411236788877
24	90401	124	1.9662150758426
24	91438	125	0.973
24	92405	126	2.2240597955934
24	93645	127	0.973
24	94686	128	1.5864271923453
24	95653	129	2.1489960567162
24	96873	130	1.3872214124918
24	97901	131	1.3940619125934
24	98863	132	1.5410701759785
24	100085	133	2.1350332620562
24	101116	134	1.2722118584623
24	102060	135	2.2033742028658
24	103447	136	1.8216448738711
24	104589	137	0.973
24	105682	138	1.8201477938511
24	107149	139	1.7115557761992
24	108319	140	1.805351880295
24	109405	141	1.7345977987541
24	110867	142	1.4399642835516
24	112034	143	2.077512109669
24	113132	144	1.6449923721004
24	114420	145	1.4484956950662
24	115192	146	0.973
24	116133	147	1.8956272695725
24	117433	148	1.7503204929752
24	118392	149	1.8103838642639
24	119554	150	1.4520848591014
24	121016	151	2.2263787246376
24	122104	152	1.6345575846951
23	6497	36	0.69748802175745
23	6780	37	0.66096751466393
23	7128	38	0.79623489277437
23	7399	39	0.65666648633778
23	7672	40	0.42036232743412
23	8021	41	0.73086312515661
23	8293	42	0.46999629931524
23	8565	43	0.63734387792647
23	8912	44	0.55669677797705
23	9183	45	0.40194473834708
23	9464	46	0.69256969001144
23	9814	47	0.63229989223182
23	10098	48	0.42843340132386
23	10382	49	0.65051074223593
23	10721	50	0.61379676153883
23	11002	51	0.7859326931648
23	11401	52	0.76629093242809
23	11948	53	0.50699172122404
23	12395	54	0.54552000463009
23	12933	55	0.78883688282222
23	13470	56	0.67993197618052
23	13928	57	0.71165899150074
23	14635	58	0.77799200359732
23	15469	59	0.59070157157257
23	16134	60	0.63345213811844
23	16972	61	0.78071249984205
23	17802	62	-0.20339476056973
23	18553	63	-0.092444854043425
23	19558	64	0.27596597336233
23	20647	65	-0.065406196936966
23	21535	66	0.032114239502697
23	22775	67	-0.15934892995283
23	23877	68	0.020848180633038
23	24743	69	0.036636904254554
23	26405	70	-0.02403514003381
23	27803	71	-0.062644548155369
23	29041	72	0.21993376966566
23	30686	73	0.0027318611741087
23	32091	74	-0.29004886411131
23	33310	75	-3.258230368724
23	34952	76	-4.5
23	36317	77	-4.5
23	37547	78	-4.2399699913033
23	39188	79	-0.18614920033158
23	40576	80	-0.13073029504465
23	41783	81	-0.010249711668247
23	43419	82	-0.0075682759263291
23	44799	83	-0.00026657464661437
23	45893	84	0
23	47283	85	0
23	48519	86	0
23	49615	87	0
23	51008	88	0
23	52242	89	0
23	53333	90	0
23	54717	91	0
23	55954	92	0.67368186356752
23	57048	93	0.2888651481477
23	58296	94	0.40165615351871
23	59331	95	0.70493643078953
23	60298	96	0.5865517645143
23	61532	97	0.57244589896873
23	62565	98	0.74875022089109
23	63527	99	0.67906697290018
23	64765	100	0.40038379384205
23	65799	101	0.61471258839592
23	66763	102	0.51002642987296
23	68004	103	0.63191855838522
23	69037	104	0.60582915972918
23	69959	105	0.79488767562434
23	71173	106	0.60505135804415
23	72209	107	0.42327733933926
23	73171	108	0.22908725239015
23	74391	109	0.048332247883081
23	75422	110	0.24849135801196
23	76362	111	-0.314067238383
23	77582	112	0.33133635958657
23	78612	113	0.0036476312205203
23	79552	114	-0.2836046510376
23	80792	115	0.30146711394191
23	81816	116	-0.24006212176755
23	82762	117	0.11202443251386
23	83982	118	-0.091106444504112
23	84997	119	0.089659487362951
23	85945	120	-0.030273160710932
23	87186	121	0.13373081963509
23	88218	122	-0.31047499710694
23	89181	123	0.16522221658379
23	90401	124	0.12721332116053
23	91438	125	-0.24391218945384
23	92405	126	0.23718086369336
23	93645	127	-0.25123903267086
23	94686	128	-0.026043888181448
23	95653	129	0.20888468436897
23	96873	130	-0.11512169484049
23	97901	131	-0.10992406643927
23	98863	132	-0.044251363165678
23	100085	133	0.20624703420326
23	101116	134	-0.16333648581058
23	102060	135	0.2318703182973
23	103447	136	0.065911059174688
23	104589	137	-0.28461075434461
23	105682	138	0.073512653075158
23	107149	139	0.025438680127264
23	108319	140	0.063634362630545
23	109405	141	0.032041347492488
23	110867	142	-0.092352237366141
23	112034	143	0.17506383424625
23	113132	144	-0.0087069039233025
23	114420	145	-0.090370368771255
23	115192	146	-0.2022668948397
23	116133	147	0.10595207652077
23	117433	148	0.04135744618252
23	118392	149	0.064815199840814
23	119554	150	-0.087072567734868
23	121016	151	0.23511784225702
23	122104	152	-0.014750000461936
22	6213	35	0.52806081874296
22	6497	36	1.2255488405004
22	6780	37	1.8865163551643
22	7128	38	2.6827512479387
22	7399	39	3.3394177342765
22	7672	40	3.7597800617106
22	8021	41	4.4906431868672
22	8293	42	4.9606394861825
22	8565	43	5.597983364109
22	8912	44	6.154680142086
22	9183	45	6.5566248804331
22	9464	46	7.2491945704445
22	9814	47	7.8814944626763
22	10098	48	8.3099278640002
22	10382	49	8.9604386062361
22	10721	50	9.574235367775
22	11002	51	10.36016806094
22	11401	52	11.126458993368
22	11948	53	11.633450714592
22	12395	54	12.178970719222
22	12933	55	12.967807602044
22	13470	56	13.647739578225
22	13928	57	14.359398569725
22	14635	58	15.137390573323
22	15469	59	15.728092144895
22	16134	60	16.361544283014
22	16972	61	17.142256782856
22	17802	62	16.938862022286
22	18553	63	16.846417168243
22	19558	64	17.122383141605
22	20647	65	17.056976944668
22	21535	66	17.089091184171
22	22775	67	16.929742254218
22	23877	68	16.950590434851
22	24743	69	16.987227339106
22	26405	70	16.963192199072
22	27803	71	16.900547650916
22	29041	72	17.120481420582
22	30686	73	17.123213281756
22	32091	74	16.833164417645
22	33310	75	13.574934048921
22	34952	76	9.0749340489208
22	36317	77	4.5749340489208
22	37547	78	0.33496405761742
22	39188	79	0.14881485728584
22	40576	80	0.018084562241191
22	41783	81	0.0078348505729435
22	43419	82	0.00026657464661437
22	44799	83	0
22	45893	84	0
22	47283	85	0
22	48519	86	0
22	49615	87	0
22	51008	88	0
22	52242	89	0
22	53333	90	0
22	54717	91	0
22	55954	92	0.67368186356752
22	57048	93	0.96254701171522
22	58296	94	1.3642031652339
22	59331	95	2.0691395960235
22	60298	96	2.6556913605378
22	61532	97	3.2281372595065
22	62565	98	3.9768874803976
22	63527	99	4.6559544532977
22	64765	100	5.0563382471398
22	65799	101	5.6710508355357
22	66763	102	6.1810772654087
22	68004	103	6.8129958237939
22	69037	104	7.4188249835231
22	69959	105	8.2137126591474
22	71173	106	8.8187640171916
22	72209	107	9.2420413565308
22	73171	108	9.471128608921
22	74391	109	9.5194608568041
22	75422	110	9.767952214816
22	76362	111	9.453884976433
22	77582	112	9.7852213360196
22	78612	113	9.7888689672401
22	79552	114	9.5052643162025
22	80792	115	9.8067314301444
22	81816	116	9.5666693083769
22	82762	117	9.6786937408907
22	83982	118	9.5875872963866
22	84997	119	9.6772467837496
22	85945	120	9.6469736230386
22	87186	121	9.7807044426737
22	88218	122	9.4702294455668
22	89181	123	9.6354516621506
22	90401	124	9.7626649833111
22	91438	125	9.5187527938573
22	92405	126	9.7559336575506
22	93645	127	9.5046946248798
22	94686	128	9.4786507366983
22	95653	129	9.6875354210673
22	96873	130	9.5724137262268
22	97901	131	9.4624896597875
22	98863	132	9.4182382966218
22	100085	133	9.6244853308251
22	101116	134	9.4611488450145
22	102060	135	9.6930191633118
22	103447	136	9.7589302224865
22	104589	137	9.4743194681419
22	105682	138	9.5478321212171
22	107149	139	9.5732708013443
22	108319	140	9.6369051639749
22	109405	141	9.6689465114674
22	110867	142	9.5765942741012
22	112034	143	9.7516581083475
22	113132	144	9.7429512044242
22	114420	145	9.6525808356529
22	115192	146	9.4503139408132
22	116133	147	9.556266017334
22	117433	148	9.5976234635165
22	118392	149	9.6624386633573
22	119554	150	9.5753660956224
22	121016	151	9.8104839378795
22	122104	152	9.7957339374175
21	5864	34	30.1
21	6213	35	30.628060818743
21	6497	36	31.853609659243
21	6780	37	33.740126014408
21	7128	38	36.422877262346
21	7399	39	39.762294996623
21	7672	40	43.522075058334
21	8021	41	48.012718245201
21	8293	42	52.973357731383
21	8565	43	58.571341095492
21	8912	44	64.726021237578
21	9183	45	71.282646118011
21	9464	46	78.531840688456
21	9814	47	86.413335151132
21	10098	48	94.723263015132
21	10382	49	103.68370162137
21	10721	50	113.25793698914
21	11002	51	123.61810505008
21	11401	52	134.74456404345
21	11948	53	146.37801475804
21	12395	54	158.55698547727
21	12933	55	171.52479307931
21	13470	56	185.17253265753
21	13928	57	199.53193122726
21	14635	58	214.66932180058
21	15469	59	230.39741394548
21	16134	60	246.75895822849
21	16972	61	263.90121501135
21	17802	62	280.84007703363
21	18553	63	297.68649420188
21	19558	64	314.80887734348
21	20647	65	331.86585428815
21	21535	66	348.95494547232
21	22775	67	365.88468772654
21	23877	68	382.83527816139
21	24743	69	399.82250550049
21	26405	70	416.78569769957
21	27803	71	433.68624535048
21	29041	72	450.80672677106
21	30686	73	467.92994005282
21	32091	74	484.76310447047
21	33310	75	498.33803851939
21	34952	76	507.41297256831
21	36317	77	511.98790661723
21	37547	78	512.32287067484
21	39188	79	512.47168553213
21	40576	80	512.48977009437
21	41783	81	512.49760494494
21	43419	82	512.49787151959
21	44799	83	512.49787151959
21	45893	84	512.49787151959
21	47283	85	512.49787151959
21	48519	86	512.49787151959
21	49615	87	512.49787151959
21	51008	88	512.49787151959
21	52242	89	512.49787151959
21	53333	90	512.49787151959
21	54717	91	512.49787151959
21	55954	92	513.17155338316
21	57048	93	514.13410039487
21	58296	94	515.49830356011
21	59331	95	517.56744315613
21	60298	96	520.22313451667
21	61532	97	523.45127177618
21	62565	98	527.42815925657
21	63527	99	532.08411370987
21	64765	100	537.14045195701
21	65799	101	542.81150279255
21	66763	102	548.99258005796
21	68004	103	555.80557588175
21	69037	104	563.22440086527
21	69959	105	571.43811352442
21	71173	106	580.25687754161
21	72209	107	589.49891889814
21	73171	108	598.97004750706
21	74391	109	608.48950836387
21	75422	110	618.25746057868
21	76362	111	627.71134555512
21	77582	112	637.49656689114
21	78612	113	647.28543585838
21	79552	114	656.79070017458
21	80792	115	666.59743160472
21	81816	116	676.1641009131
21	82762	117	685.84279465399
21	83982	118	695.43038195038
21	84997	119	705.10762873413
21	85945	120	714.75460235717
21	87186	121	724.53530679984
21	88218	122	734.00553624541
21	89181	123	743.64098790756
21	90401	124	753.40365289087
21	91438	125	762.92240568472
21	92405	126	772.67833934228
21	93645	127	782.18303396715
21	94686	128	791.66168470385
21	95653	129	801.34922012492
21	96873	130	810.92163385115
21	97901	131	820.38412351093
21	98863	132	829.80236180756
21	100085	133	839.42684713838
21	101116	134	848.8879959834
21	102060	135	858.58101514671
21	103447	136	868.33994536919
21	104589	137	877.81426483734
21	105682	138	887.36209695855
21	107149	139	896.9353677599
21	108319	140	906.57227292387
21	109405	141	916.24121943534
21	110867	142	925.81781370944
21	112034	143	935.56947181779
21	113132	144	945.31242302221
21	114420	145	954.96500385787
21	115192	146	964.41531779868
21	116133	147	973.97158381601
21	117433	148	983.56920727953
21	118392	149	993.23164594289
21	119554	150	1002.8070120385
21	121016	151	1012.6174959764
21	122104	152	1022.4132299138
20	5864	34	523.4
20	6213	35	523.4
20	6497	36	523.4
20	6780	37	523.4
20	7128	38	523.4
20	7399	39	523.4
20	7672	40	520.2
20	8021	41	520.2
20	8293	42	520.2
20	8565	43	520.2
20	8912	44	520.2
20	9183	45	520.2
20	9464	46	520.2
20	9814	47	520.2
20	10098	48	520.2
20	10382	49	520.2
20	10721	50	520.2
20	11002	51	520.2
20	11401	52	520.2
20	11948	53	520.2
20	12395	54	520.2
20	12933	55	520.2
20	13470	56	520.2
20	13928	57	520.2
20	14635	58	520.2
20	15469	59	520.2
20	16134	60	520.2
20	16972	61	520.2
20	17802	62	520.2
20	18553	63	520.2
20	19558	64	520.2
20	20647	65	523.4
20	21535	66	523.4
20	22775	67	523.4
20	23877	68	523.4
20	24743	69	523.4
20	26405	70	523.4
20	27803	71	523.4
20	29041	72	523.4
20	30686	73	523.4
20	32091	74	523.4
20	33310	75	523.4
20	34952	76	523.4
20	36317	77	523.4
20	37547	78	523.4
20	39188	79	523.4
20	40576	80	523.4
20	41783	81	523.4
20	43419	82	523.4
20	44799	83	523.4
20	45893	84	523.4
20	47283	85	523.4
20	48519	86	523.4
20	49615	87	523.4
20	51008	88	523.4
20	52242	89	523.4
20	53333	90	523.4
20	54717	91	523.4
20	55954	92	523.4
20	57048	93	523.4
20	58296	94	523.4
20	59331	95	523.4
20	60298	96	523.4
20	61532	97	523.4
20	62565	98	523.4
20	63527	99	523.4
20	64765	100	523.4
20	65799	101	523.4
20	66763	102	523.4
20	68004	103	523.4
20	69037	104	523.4
20	69959	105	523.4
20	71173	106	523.4
20	72209	107	523.4
20	73171	108	523.4
20	74391	109	523.4
20	75422	110	523.4
20	76362	111	520.2
20	77582	112	520.2
20	78612	113	520.2
20	79552	114	520.2
20	80792	115	520.2
20	81816	116	520.2
20	82762	117	520.2
20	83982	118	520.2
20	84997	119	520.2
20	85945	120	520.2
20	87186	121	520.2
20	88218	122	520.2
20	89181	123	520.2
20	90401	124	520.2
20	91438	125	520.2
20	92405	126	520.2
20	93645	127	520.2
20	94686	128	520.2
20	95653	129	520.2
20	96873	130	520.2
20	97901	131	520.2
20	98863	132	520.2
20	100085	133	520.2
20	101116	134	520.2
20	102060	135	520.2
20	103447	136	520.2
20	104589	137	520.2
20	105682	138	520.2
20	107149	139	520.2
20	108319	140	520.2
20	109405	141	520.2
20	110867	142	520.2
20	112034	143	520.2
20	113132	144	520.2
20	114420	145	520.2
20	115192	146	520.2
20	116133	147	520.2
20	117433	148	520.2
20	118392	149	520.2
20	119554	150	520.2
20	121016	151	520.2
20	122104	152	520.2
vector 80 scoretable.node[16].veinsmobility posx ETV
vector 81 scoretable.node[16].veinsmobility posy ETV
vector 82 scoretable.node[16].veinsmobility speed ETV
vector 83 scoretable.node[16].veinsmobility acceleration ETV
vector 84 scoretable.node[16].veinsmobility co2emission ETV
vector 85 scoretable.node[17].veinsmobility posx ETV
vector 86 scoretable.node[17].veinsmobility posy ETV
vector 87 scoretable.node[17].veinsmobility speed ETV
vector 88 scoretable.node[17].veinsmobility acceleration ETV
vector 89 scoretable.node[17].veinsmobility co2emission ETV
vector 90 scoretable.node[18].veinsmobility posx ETV
vector 91 scoretable.node[18].veinsmobility posy ETV
vector 92 scoretable.node[18].veinsmobility speed ETV
vector 93 scoretable.node[18].veinsmobility acceleration ETV
vector 94 scoretable.node[18].veinsmobility co2emission ETV
vector 95 scoretable.node[19].veinsmobility posx ETV
vector 96 scoretable.node[19].veinsmobility posy ETV
vector 97 scoretable.node[19].veinsmobility speed ETV
vector 98 scoretable.node[19].veinsmobility acceleration ETV
vector 99 scoretable.node[19].veinsmobility co2emission ETV
vector 100 scoretable.node[20].veinsmobility posx ETV
vector 101 scoretable.node[20].veinsmobility posy ETV
vector 102 scoretable.node[20].veinsmobility speed ETV
vector 103 scoretable.node[20].veinsmobility acceleration ETV
vector 104 scoretable.node[20].veinsmobility co2emission ETV
vector 105 scoretable.node[21].veinsmobility posx ETV
vector 106 scoretable.node[21].veinsmobility posy ETV
vector 107 scoretable.node[21].veinsmobility speed ETV
vector 108 scoretable.node[21].veinsmobility acceleration ETV
vector 109 scoretable.node[21].veinsmobility co2emission ETV
79	121016	151	1.3642077383761
79	122104	152	1.4885510760611
79	123272	153	1.7089269734639
79	124585	154	1.9392918748633
79	125533	155	2.0411407583616
79	126495	156	2.0343434628843
79	127800	157	2.161644746412
79	128756	158	2.3024643562965
79	129719	159	2.2532210271028
79	131021	160	2.2885495332132
79	131982	161	2.2243380471893
79	132943	162	3.11963722702
79	134248	163	2.5198721061108
79	135343	164	2.8598583502443
79	136506	165	3.530038372181
79	137980	166	3.4063006503564
79	139043	167	3.4537237259677
79	140186	168	3.0525656301253
79	141652	169	3.9409531949348
79	142748	170	4.3648857215854
79	143920	171	3.7172103117093
79	145383	172	3.8459212759129
79	146615	173	4.9519404497153
79	148002	174	4.7464638007306
79	149647	175	3.9453562730322
79	150880	176	4.1101507969552
79	152280	177	4.8247012368593
79	153927	178	5.5150499514847
79	155170	179	5.932933052957
79	156546	180	5.3573673917839
79	158185	181	4.8725474791708
79	159394	182	4.751011914549
79	160792	183	2.2894479440536
79	162404	184	3.7540146339324
79	163640	185	3.2980946863091
79	165190	186	2.4101914811952
79	167083	187	3.2243954465234
79	168474	188	0.973
79	170007	189	4.9977363259101
79	171914	190	0.973
79	173296	191	0.973
79	174827	192	1.4294346390343
79	176732	193	2.2934387429815
79	178108	194	1.4049720908238
79	179662	195	1.5502582835784
79	181564	196	1.5369363573064
79	182943	197	2.2410418336671
79	184504	198	1.4872090880902
79	186602	199	1.5863675637765
79	188231	200	2.1131972380572
79	189962	201	2.4012990901558
79	192056	202	1.2636099710148
79	193688	203	1.8440395960704
79	195415	204	1.3015622203797
79	197504	205	2.3262591477254
79	199139	206	1.2157868369281
79	200870	207	2.1229961624058
79	202950	208	2.1749547712142
79	204840	209	1.633151547056
79	206741	210	2.0738976166309
79	209040	211	1.590646816508
79	210926	212	1.3836061407047
79	212835	213	2.2351977466204
79	215144	214	2.1808470568093
79	217326	215	1.8324064606988
79	219382	216	1.4444186574226
79	221892	217	1.9906837438388
79	224080	218	1.9487850475543
79	226166	219	1.349028712083
79	228643	220	1.9732063384806
79	230849	221	2.1240698354466
79	232926	222	1.7712555571381
79	235429	223	1.8824102506482
79	237623	224	1.4872316200704
79	239706	225	0.973
79	242203	226	1.9292486812956
79	244385	227	1.9105278069795
79	246450	228	1.5342631612648
79	248961	229	1.6883966590333
79	251153	230	1.9962597110222
79	253229	231	2.1491861602426
79	255740	232	1.6910610275576
79	257916	233	1.4996026396557
78	121016	151	0.637872203812
78	122104	152	0.63037768043578
78	123272	153	0.74205160336569
78	124585	154	0.7988357366994
78	125533	155	0.72363197766244
78	126495	156	0.59845723258331
78	127800	157	0.60374394599348
78	128756	158	0.61500220475718
78	129719	159	0.51519024996087
78	131021	160	0.4830305583775
78	131982	161	0.4060246151872
78	132943	162	0.79501863317564
78	134248	163	0.45008540125564
78	135343	164	0.55866926722229
78	136506	165	0.77119815107435
78	137980	166	0.65525219403207
78	139043	167	0.61812478126958
78	140186	168	0.43891718760133
78	141652	169	0.69221047349274
78	142748	170	0.76351230740547
78	143920	171	0.52173038739711
78	145383	172	0.5244764120318
78	146615	173	0.78096950901672
78	148002	174	0.6725554285571
78	149647	175	0.43406001832336
78	150880	176	0.44990147659555
78	152280	177	0.58975809495896
78	153927	178	0.7055313160643
78	155170	179	0.74724214524031
78	156546	180	0.58117583803833
78	158185	181	0.45051495069638
78	159394	182	0.40307009580168
78	160792	183	-0.10528243435547
78	162404	184	0.19228074327111
78	163640	185	0.094423026870938
78	165190	186	-0.085863007139416
78	167083	187	0.07948980461806
78	168474	188	-1.4898217207269
78	170007	189	0.50082170730457
78	171914	190	-3.4570019785573
78	173296	191	-4.2001242226389
78	174827	192	-0.13321655625477
78	176732	193	0.17395698353648
78	178108	194	-0.14270866317674
78	179662	195	-0.08784227045253
78	181564	196	-0.090678737219422
78	182943	197	0.16220260504633
78	184504	198	-0.1101506754756
78	186602	199	-0.071925558336078
78	188231	200	0.11823960738256
78	189962	201	0.21318850060925
78	192056	202	-0.19331640824675
[...]
98	534343	357	-0.53481119109791
98	535984	358	0.10841036746281
98	537298	359	0.40205475839318
98	538617	360	-0.63651435673245
98	540256	361	0.12951526646509
98	541553	362	-0.32312341893557
98	542869	363	0.67483781035989
98	544507	364	-0.12264314105264
98	545798	365	-0.27069920357329
98	547117	366	-0.13790088060767
98	548751	367	-0.01136637050663
98	550053	368	0.28705876229795
98	551366	369	-0.039379919692794
98	552987	370	0.48543926172416
98	554299	371	-0.8557032791664
98	555615	372	0.26817411077199
98	557259	373	0.4437531394884
98	558568	374	-0.78972203370637
98	559863	375	0.63304875008766
98	561502	376	-0.006036798283469
98	562807	377	-0.36852776382609
98	564123	378	0.066041927319179
98	565763	379	0.72543637659401
98	567061	380	-1.4721681632801
98	568374	381	0.55275259576738
98	570013	382	0.64247448286042
98	571335	383	0.050894822529779
98	572646	384	-0.65323449454754
98	574261	385	0.32382397346656
98	575557	386	-0.14612642007394
98	576876	387	0.43391226078375
98	578514	388	-0.67184624965312
98	579832	389	0.15757888888484
98	581120	390	0.13957920810201
98	582749	391	0.20641941886869
98	584062	392	-0.41463300867473
98	585350	393	0.4606617343612
98	586986	394	-0.59209700822833
98	588275	395	0.21152037240091
98	589562	396	0.63803217466925
98	591185	397	-0.48448769096276
98	592496	398	0.39243990518156
98	593816	399	-0.55309268017319
98	595454	400	-0.29799837556186
98	596763	401	0.5148595132865
98	598075	402	0.23734052814522
98	599721	403	0.21876710392545
98	601031	404	-0.39034037312939
98	602331	405	-0.88888652645996
98	603973	406	0.62268563276156
98	605142	407	0.57994009954855
98	606170	408	-0.16204911081581
98	607310	409	-0.34686469738369
98	608338	410	-0.22269728840337
98	609368	411	0.33934831889345
98	610198	412	-0.55141691486345
98	610904	413	0.50400393167511
98	611664	414	0.75615123026073
98	612301	415	-0.7020095863846
98	612790	416	0.58060213190039
98	613202	417	0.29847011687236
98	613599	418	0.77159406552091
98	613913	419	0.093696420732702
98	614116	420	0.54360127234831
98	614328	421	0.50616745296866
98	614412	422	0.47502400688827
97	186602	199	0.47304215775803
97	188231	200	1.1773854162544
97	189962	201	1.6110293907113
97	192056	202	2.2201791092753
97	193688	203	2.8942363390699
97	195415	204	3.6110303211957
97	197504	205	4.4069963305257
97	199139	206	4.8525695955381
97	200870	207	5.4407009750605
97	202950	208	5.880249780044
97	204840	209	6.6582587844692
97	206741	210	7.3226077576168
97	209040	211	7.9372779869474
97	210926	212	8.6239294123836
97	212835	213	9.1336650810204
97	215144	214	9.6409444248304
97	217326	215	10.428163220081
97	219382	216	11.011257545557
97	221892	217	11.421515218727
97	224080	218	11.927400526032
97	226166	219	12.631720700487
97	228643	220	13.102565272804
97	230849	221	13.801015049964
97	232926	222	14.461075838096
97	235429	223	15.031063245237
97	237623	224	15.577321027592
97	239706	225	16.376271525677
97	242203	226	17.117528587393
97	244385	227	17.681085372623
97	246450	228	17.874576169706
97	248961	229	17.988360256969
97	251153	230	17.858281559858
97	253229	231	17.910038551769
97	255740	232	17.995778520207
97	257916	233	17.954202549613
97	260006	234	18.136205261468
97	262309	235	17.938965652498
97	264126	236	15.62436861221
97	265737	237	12.374844030878
97	267745	238	9.2483502350706
97	269576	239	6.3213930837652
97	271211	240	4.4861744396891
97	273218	241	3.3729711503759
97	275225	242	2.6406927734381
97	277017	243	2.8841512180864
97	279310	244	2.5858004387933
97	281307	245	2.5818322988227
97	283103	246	2.8109290403314
97	285405	247	3.161519459635
97	287589	248	2.9939818129875
97	289568	249	2.8914834022522
97	292185	250	2.7390304218977
97	294382	251	3.0542060942855
97	296370	252	3.0249406527728
97	299312	253	2.9712047126376
97	301706	254	2.691510012676
97	303875	255	3.0911893835292
97	306819	256	1.6516925958217
97	309212	257	2.3956293312134
97	311376	258	2.9205596938962
97	314313	259	3.3258019419619
97	316709	260	3.8851991375212
97	318851	261	2.4789311405271
97	321796	262	2.373563958169
97	324184	263	2.8618794540176
97	326346	264	3.5307377198245
97	329287	265	2.4983484579716
97	331687	266	2.8907676915172
97	333853	267	3.1856719198171
97	336791	268	2.7435377658345
97	339184	269	2.8390510636615
97	341353	270	3.1921777382493
97	344292	271	2.9716425226536
97	346678	272	2.6514329948928
97	348844	273	2.7955842934083
97	351780	274	2.5398264914285
97	354174	275	3.2496919619385
97	356346	276	3.1085159082199
97	359286	277	1.7405464174924
97	361674	278	2.4406245922437
97	363843	279	2.9026472377358
97	366776	280	3.3120583749842
97	369174	281	2.9260201198282
97	371341	282	2.9220009673387
97	374284	283	3.438463769434
97	376673	284	1.9779344256269
97	378843	285	2.7648271648446
97	381796	286	3.1802987076342
97	384185	287	3.2588239053264
97	386350	288	2.2205439177342
97	389291	289	2.6228722479195
97	391677	290	3.1300238350173
97	393853	291	3.054435789166
97	396792	292	2.710499353311
97	399182	293	3.0133534920635
97	401319	294	2.6377477502916
97	404266	295	2.468022385519
97	406655	296	3.1968342033214
97	408825	297	3.9731534826569
97	411772	298	3.2039942136052
97	414171	299	3.2077701659873
97	416334	300	2.3189173451391
97	419273	301	2.6993832553504
97	421668	302	3.2920975254151
97	423837	303	3.1032743940828
97	426775	304	2.3038028645562
97	429155	305	2.7924650623696
97	431325	306	2.4422671320383
97	434271	307	2.1634330905276
97	436672	308	2.7116119210841
97	438833	309	3.4621591996635
97	441784	310	3.8993671569507
97	444175	311	2.4442629287485
97	446332	312	3.123175620404
97	449278	313	2.419205473992
97	451666	314	2.7888465259224
97	453828	315	3.1776055870112
97	456775	316	2.5754768160637
97	459171	317	3.2449874177109
97	461341	318	2.5114085772308
97	464286	319	3.1255054950016
97	466375	320	2.9680973384995
97	468363	321	2.526610153052
97	471082	322	2.0528798350598
97	473175	323	2.5698719113599
97	475148	324	3.3407721154857
97	477873	325	3.6261685115286
97	479972	326	2.8695926452987
97	481965	327	3.2178130396875
97	484677	328	2.2607094877399
97	486583	329	2.8823458596598
97	488217	330	2.6188667517388
97	490410	331	3.3856229053112
97	492037	332	3.0645413352177
97	493661	333	2.7212631975301
97	495851	334	2.489738260745
97	497486	335	3.0056237922981
97	499092	336	2.8490994062508
97	501282	337	2.8698380553628
97	502927	338	2.4950270916569
97	504535	339	2.8951931392773
97	506714	340	2.8688758600736
97	508348	341	3.3172800677829
97	509984	342	2.2389017898123
97	512177	343	3.0171329232398
97	513809	344	3.1671369533055
97	515272	345	2.9332375623518
97	517183	346	2.6180466198596
97	518657	347	2.5951803470495
97	520136	348	3.3912151255178
97	522041	349	2.5272262948101
97	523515	350	2.7320575488033
97	524980	351	3.474999570963
97	526882	352	2.7750186718302
97	528349	353	2.6100642424775
97	529826	354	2.2164156681624
97	531726	355	2.8048541376133
97	533036	356	3.3364565111465
97	534343	357	2.8016453200486
97	535984	358	2.9100556875114
97	537298	359	3.3121104459046
97	538617	360	2.6755960891721
97	540256	361	2.8051113556372
97	541553	362	2.4819879367016
97	542869	363	3.1568257470615
97	544507	364	3.0341826060089
97	545798	365	2.7634834024356
97	547117	366	2.6255825218279
97	548751	367	2.6142161513213
97	550053	368	2.9012749136192
97	551366	369	2.8618949939264
97	552987	370	3.3473342556506
97	554299	371	2.4916309764842
97	555615	372	2.7598050872562
97	557259	373	3.2035582267446
97	558568	374	2.4138361930382
97	559863	375	3.0468849431259
97	561502	376	3.0408481448424
97	562807	377	2.6723203810163
97	564123	378	2.7383623083355
97	565763	379	3.4637986849295
97	567061	380	1.9916305216494
97	568374	381	2.5443831174168
97	570013	382	3.1868576002772
97	571335	383	3.237752422807
97	572646	384	2.5845179282594
97	574261	385	2.908341901726
97	575557	386	2.7622154816521
97	576876	387	3.1961277424358
97	578514	388	2.5242814927827
97	579832	389	2.6818603816675
97	581120	390	2.8214395897695
97	582749	391	3.0278590086382
97	584062	392	2.6132259999635
97	585350	393	3.0738877343247
97	586986	394	2.4817907260964
97	588275	395	2.6933110984973
97	589562	396	3.3313432731665
97	591185	397	2.8468555822038
97	592496	398	3.2392954873853
97	593816	399	2.6862028072121
97	595454	400	2.3882044316503
97	596763	401	2.9030639449368
97	598075	402	3.140404473082
97	599721	403	3.3591715770075
97	601031	404	2.9688312038781
97	602331	405	2.0799446774181
97	603973	406	2.7026303101797
97	605142	407	3.2825704097282
97	606170	408	3.1205212989124
97	607310	409	2.7736566015287
97	608338	410	2.5509593131253
97	609368	411	2.8903076320188
97	610198	412	2.3388907171553
97	610904	413	2.8428946488304
97	611664	414	3.5990458790912
97	612301	415	2.8970362927066
97	612790	416	3.4776384246069
97	613202	417	3.7761085414793
97	613599	418	4.5477026070002
97	613913	419	4.6413990277329
97	614116	420	5.1850003000812
97	614328	421	5.6911677530499
97	614412	422	6.1661917599382
96	184504	198	529.8
96	186602	199	529.8
96	188231	200	529.8
96	189962	201	529.8
96	192056	202	529.8
96	193688	203	529.8
96	195415	204	529.8
96	197504	205	529.8
96	199139	206	529.8
96	200870	207	529.8
96	202950	208	529.8
96	204840	209	529.8
96	206741	210	529.8
96	209040	211	529.8
96	210926	212	529.8
96	212835	213	529.8
96	215144	214	529.8
96	217326	215	529.8
96	219382	216	529.8
96	221892	217	529.8
96	224080	218	529.8
96	226166	219	529.8
96	228643	220	529.8
96	230849	221	529.8
96	232926	222	529.8
96	235429	223	529.8
96	237623	224	529.8
96	239706	225	529.8
96	242203	226	529.8
96	244385	227	526.6
96	246450	228	526.6
96	248961	229	526.6
96	251153	230	526.6
96	253229	231	526.6
96	255740	232	526.6
96	257916	233	526.6
96	260006	234	526.6
96	262309	235	526.6
96	264126	236	526.6
96	265737	237	526.6
96	267745	238	526.6
96	269576	239	526.6
96	271211	240	526.6
96	273218	241	526.6
96	275225	242	526.6
96	277017	243	526.6
96	279310	244	526.6
96	281307	245	526.6
96	283103	246	526.6
96	285405	247	526.6
96	287589	248	526.6
96	289568	249	526.6
96	292185	250	526.6
96	294382	251	526.6
96	296370	252	526.6
96	299312	253	526.6
96	301706	254	526.6
96	303875	255	526.6
96	306819	256	526.6
96	309212	257	526.6
96	311376	258	526.6
96	314313	259	526.6
96	316709	260	526.6
96	318851	261	526.6
96	321796	262	526.6
96	324184	263	526.6
96	326346	264	526.6
96	329287	265	526.6
96	331687	266	526.6
96	333853	267	526.6
96	336791	268	526.6
96	339184	269	526.6
96	341353	270	526.6
96	344292	271	526.6
96	346678	272	526.6
96	348844	273	526.6
96	351780	274	526.6
96	354174	275	526.6
96	356346	276	526.6
96	359286	277	526.6
96	361674	278	526.6
96	363843	279	526.6
96	366776	280	526.6
96	369174	281	526.6
96	371341	282	526.6
96	374284	283	526.6
96	376673	284	526.6
96	378843	285	526.6
96	381796	286	526.6
96	384185	287	526.6
96	386350	288	526.6
96	389291	289	526.6
96	391677	290	526.6
96	393853	291	526.6
96	396792	292	526.6
96	399182	293	526.6
96	401319	294	526.6
96	404266	295	526.6
96	406655	296	529.8
96	408825	297	529.8
96	411772	298	529.8
96	414171	299	529.8
96	416334	300	529.8
96	419273	301	529.8
96	421668	302	529.8
96	423837	303	529.8
96	426775	304	529.8
96	429155	305	529.8
96	431325	306	529.8
96	434271	307	529.8
96	436672	308	529.8
96	438833	309	529.8
96	441784	310	529.8
96	444175	311	529.8
96	446332	312	529.8
96	449278	313	529.8
96	451666	314	529.8
96	453828	315	529.8
96	456775	316	529.8
96	459171	317	529.8
96	461341	318	529.8
96	464286	319	529.8
96	466375	320	529.8
96	468363	321	529.8
96	471082	322	529.8
96	473175	323	529.8
96	475148	324	529.8
96	477873	325	529.8
96	479972	326	529.8
96	481965	327	529.8
96	484677	328	529.8
96	486583	329	529.8
96	488217	330	529.8
96	490410	331	529.8
96	492037	332	529.8
96	493661	333	529.8
96	495851	334	529.8
96	497486	335	529.8
96	499092	336	529.8
96	501282	337	529.8
96	502927	338	529.8
96	504535	339	529.8
96	506714	340	529.8
96	508348	341	529.8
96	509984	342	529.8
96	512177	343	529.8
96	513809	344	529.8
96	515272	345	529.8
96	517183	346	529.8
96	518657	347	529.8
96	520136	348	529.8
96	522041	349	529.8
96	523515	350	529.8
96	524980	351	529.8
96	526882	352	529.8
96	528349	353	529.8
96	529826	354	529.8
96	531726	355	529.8
96	533036	356	529.8
96	534343	357	529.8
96	535984	358	529.8
96	537298	359	529.8
96	538617	360	529.8
96	540256	361	529.8
96	541553	362	529.8
96	542869	363	529.8
96	544507	364	529.8
96	545798	365	529.8
96	547117	366	529.8
96	548751	367	529.8
96	550053	368	529.8
96	551366	369	529.8
96	552987	370	529.8
96	554299	371	529.8
96	555615	372	529.8
96	557259	373	529.8
96	558568	374	529.8
96	559863	375	529.8
96	561502	376	529.8
96	562807	377	529.8
96	564123	378	529.8
96	565763	379	529.8
96	567061	380	529.8
96	568374	381	529.8
96	570013	382	529.8
96	571335	383	529.8
96	572646	384	529.8
96	574261	385	529.8
96	575557	386	529.8
96	576876	387	529.8
96	578514	388	529.8
96	579832	389	529.8
96	581120	390	529.8
96	582749	391	529.8
96	584062	392	529.8
96	585350	393	529.8
96	586986	394	529.8
96	588275	395	529.8
96	589562	396	529.8
96	591185	397	529.8
96	592496	398	529.8
96	593816	399	529.8
96	595454	400	529.8
96	596763	401	529.8
96	598075	402	529.8
96	599721	403	529.8
96	601031	404	529.8
96	602331	405	529.8
96	603973	406	529.8
96	605142	407	529.8
96	606170	408	529.8
96	607310	409	529.8
96	608338	410	529.8
96	609368	411	529.8
96	610198	412	529.8
96	610904	413	529.8
96	611664	414	529.8
96	612301	415	529.8
96	612790	416	529.8
96	613202	417	529.8
96	613599	418	529.8
96	613913	419	529.8
96	614116	420	529.8
96	614328	421	529.8
96	614412	422	529.8
95	184504	198	30.1
95	186602	199	30.573042157758
95	188231	200	31.750427574012
95	189962	201	33.361456964724
95	192056	202	35.581636073999
95	193688	203	38.475872413069
95	195415	204	42.086902734265
95	197504	205	46.49389906479
95	199139	206	51.346468660329
95	200870	207	56.787169635389
95	202950	208	62.667419415433
95	204840	209	69.325678199902
95	206741	210	76.648285957519
95	209040	211	84.585563944466
95	210926	212	93.20949335685
95	212835	213	102.34315843787
95	215144	214	111.9841028627
95	217326	215	122.41226608278
95	219382	216	133.42352362834
95	221892	217	144.84503884707
95	224080	218	156.7724393731
95	226166	219	169.40416007359
95	228643	220	182.50672534639
95	230849	221	196.30774039635
95	232926	222	210.76881623445
95	235429	223	225.79987947969
95	237623	224	241.37720050728
95	239706	225	257.75347203296
95	242203	226	274.87100062035
95	244385	227	292.55208599297
95	246450	228	310.42666216268
95	248961	229	328.41502241965
95	251153	230	346.27330397951
95	253229	231	364.18334253128
95	255740	232	382.17912105148
95	257916	233	400.1333236011
95	260006	234	418.26952886256
95	262309	235	436.20849451506
95	264126	236	451.83286312727
95	265737	237	464.20770715815
95	267745	238	473.45605739322
95	269576	239	479.77745047699
95	271211	240	484.26362491667
95	273218	241	487.63659606705
95	275225	242	490.27728884049
95	277017	243	493.16144005858
95	279310	244	495.74724049737
95	281307	245	498.32907279619
95	283103	246	501.14000183652
95	285405	247	504.30152129616
95	287589	248	507.29550310915
95	289568	249	510.1869865114
95	292185	250	512.9260169333
95	294382	251	515.98022302758
95	296370	252	519.00516368035
95	299312	253	521.97636839299
95	301706	254	524.66787840567
95	303875	255	527.7590677892
95	306819	256	529.41076038502
95	309212	257	531.80638971623
95	311376	258	534.72694941013
95	314313	259	538.05275135209
95	316709	260	541.93795048961
95	318851	261	544.41688163014
95	321796	262	546.79044558831
95	324184	263	549.65232504232
95	326346	264	553.18306276215
95	329287	265	555.68141122012
95	331687	266	558.57217891164
95	333853	267	561.75785083145
95	336791	268	564.50138859729
95	339184	269	567.34043966095
95	341353	270	570.5326173992
95	344292	271	573.50425992185
95	346678	272	576.15569291675
95	348844	273	578.95127721015
95	351780	274	581.49110370158
95	354174	275	584.74079566352
95	356346	276	587.84931157174
95	359286	277	589.58985798923
95	361674	278	592.03048258148
95	363843	279	594.93312981921
95	366776	280	598.2451881942
95	369174	281	601.17120831403
95	371341	282	604.09320928136
95	374284	283	607.5316730508
95	376673	284	609.50960747643
95	378843	285	612.27443464127
95	381796	286	615.4547333489
95	384185	287	618.71355725423
95	386350	288	620.93410117197
95	389291	289	623.55697341988
95	391677	290	626.6869972549
95	393853	291	629.74143304407
95	396792	292	632.45193239738
95	399182	293	635.46528588944
95	401319	294	638.10303363973
95	404266	295	640.57105602525
95	406655	296	643.76789022857
95	408825	297	647.74104371123
95	411772	298	650.94503792484
95	414171	299	654.15280809082
95	416334	300	656.47172543596
95	419273	301	659.17110869131
95	421668	302	662.46320621673
95	423837	303	665.56648061081
95	426775	304	667.87028347537
95	429155	305	670.66274853774
95	431325	306	673.10501566978
95	434271	307	675.2684487603
95	436672	308	677.98006068139
95	438833	309	681.44221988105
95	441784	310	685.341587038
95	444175	311	687.78584996675
95	446332	312	690.90902558715
95	449278	313	693.32823106115
95	451666	314	696.11707758707
95	453828	315	699.29468317408
95	456775	316	701.87015999014
95	459171	317	705.11514740785
95	461341	318	707.62655598508
95	464286	319	710.75206148009
95	466375	320	713.72015881859
95	468363	321	716.24676897164
95	471082	322	718.2996488067
95	473175	323	720.86952071806
95	475148	324	724.21029283354
95	477873	325	727.83646134507
95	479972	326	730.70605399037
95	481965	327	733.92386703006
95	484677	328	736.1845765178
95	486583	329	739.06692237746
95	488217	330	741.6857891292
95	490410	331	745.07141203451
95	492037	332	748.13595336973
95	493661	333	750.85721656726
95	495851	334	753.346954828
95	497486	335	756.3525786203
95	499092	336	759.20167802655
95	501282	337	762.07151608191
95	502927	338	764.56654317357
95	504535	339	767.46173631285
95	506714	340	770.33061217292
95	508348	341	773.6478922407
95	509984	342	775.88679403052
95	512177	343	778.90392695376
95	513809	344	782.07106390706
95	515272	345	785.00430146941
95	517183	346	787.62234808927
95	518657	347	790.21752843632
95	520136	348	793.60874356184
95	522041	349	796.13596985665
95	523515	350	798.86802740545
95	524980	351	802.34302697642
95	526882	352	805.11804564825
95	528349	353	807.72810989072
95	529826	354	809.94452555889
95	531726	355	812.7493796965
95	533036	356	816.08583620765
95	534343	357	818.88748152769
95	535984	358	821.79753721521
95	537298	359	825.10964766111
95	538617	360	827.78524375028
95	540256	361	830.59035510592
95	541553	362	833.07234304262
95	542869	363	836.22916878968
95	544507	364	839.26335139569
95	545798	365	842.02683479813
95	547117	366	844.65241731996
95	548751	367	847.26663347128
95	550053	368	850.1679083849
95	551366	369	853.02980337882
95	552987	370	856.37713763447
95	554299	371	858.86876861096
95	555615	372	861.62857369821
95	557259	373	864.83213192496
95	558568	374	867.245968118
95	559863	375	870.29285306112
95	561502	376	873.33370120596
95	562807	377	876.00602158698
95	564123	378	878.74438389532
95	565763	379	882.20818258025
95	567061	380	884.1998131019
95	568374	381	886.74419621931
95	570013	382	889.93105381959
95	571335	383	893.1688062424
95	572646	384	895.75332417066
95	574261	385	898.66166607238
95	575557	386	901.42388155403
95	576876	387	904.62000929647
95	578514	388	907.14429078925
95	579832	389	909.82615117092
95	581120	390	912.64759076069
95	582749	391	915.67544976933
95	584062	392	918.28867576929
95	585350	393	921.36256350362
95	586986	394	923.84435422971
95	588275	395	926.53766532821
95	589562	396	929.86900860138
95	591185	397	932.71586418358
95	592496	398	935.95515967096
95	593816	399	938.64136247818
95	595454	400	941.02956690983
95	596763	401	943.93263085476
95	598075	402	947.07303532785
95	599721	403	950.43220690485
95	601031	404	953.40103810873
95	602331	405	955.48098278615
95	603973	406	958.18361309633
95	605142	407	961.46618350606
95	606170	408	964.58670480497
95	607310	409	967.3603614065
95	608338	410	969.91132071962
95	609368	411	972.80162835164
95	610198	412	975.1405190688
95	610904	413	977.98341371763
95	611664	414	981.58245959672
95	612301	415	984.47949588943
95	612790	416	987.95713431403
95	613202	417	991.73324285551
95	613599	418	996.28094546251
95	613913	419	1000.9223444902
95	614116	420	1006.1073447903
95	614328	421	1011.7985125434
95	614412	422	1017.9647043033

