version 2
run WithChannelSwitching-0-20231103-04:34:22-99030
attr configname WithChannelSwitching
attr datetime 20231103-04:34:22
attr experiment WithChannelSwitching
attr inifile omnetpp.ini
attr iterationvars ""
attr iterationvarsf ""
attr measurement ""
attr network eintersection
attr processid 99030
attr repetition 0
attr replication #0
attr resultdir results
attr runnumber 0
attr seedset 0
param *.**.nic.mac1609_4.useServiceChannel true
param *.node[*].appl.dataOnSch true
param *.playgroundSizeX 2500m
param *.playgroundSizeY 2500m
param *.playgroundSizeZ 50m
param *.annotations.draw true
param *.manager.updateInterval 1s
param *.manager.host "\"localhost\""
param *.manager.port 9999
param *.manager.autoShutdown false
param *.manager.launchConfig "xmldoc(\"emergency.launchd.xml\")"
param *.connectionManager.sendDirect true
param *.connectionManager.maxInterfDist 2600m
param *.connectionManager.drawMaxIntfDist true
param *.**.nic.mac1609_4.txPower 20mW
param *.**.nic.phy80211p.minPowerLevel -110dBm
param *.**.nic.phy80211p.useNoiseFloor true
param *.**.nic.phy80211p.noiseFloor -98dBm
param *.**.nic.phy80211p.decider "xmldoc(\"config.xml\")"
param *.**.nic.phy80211p.analogueModels "xmldoc(\"config.xml\")"
param *.**.nic.phy80211p.usePropagationDelay true
param *.node[*].applType "\"MyVeinsApp\""
param *.node[*].appl.headerLength "80 bit"
param *.node[*].appl.sendBeacons true
param *.node[*].appl.dataOnSch false
param *.node[*].appl.beaconInterval 3s
param *.node[*].veinsmobility.x 0
param *.node[*].veinsmobility.y 0
param *.node[*].veinsmobility.z 0
param *.node[*].veinsmobility.setHostSpeed false
param *.node[*0].veinsmobility.accidentCount 0
param *.node[*0].veinsmobility.accidentStart 73s
param *.node[*0].veinsmobility.accidentDuration 50s

vector 0 eintersection.node[0].veinsmobility posx ETV
vector 1 eintersection.node[0].veinsmobility posy ETV
vector 2 eintersection.node[0].veinsmobility speed ETV
vector 3 eintersection.node[0].veinsmobility acceleration ETV
vector 4 eintersection.node[0].veinsmobility co2emission ETV
vector 5 eintersection.node[1].veinsmobility posx ETV
vector 6 eintersection.node[1].veinsmobility posy ETV
vector 7 eintersection.node[1].veinsmobility speed ETV
vector 8 eintersection.node[1].veinsmobility acceleration ETV
vector 9 eintersection.node[1].veinsmobility co2emission ETV
0	5	4	533.4
0	25	5	533.4
0	46	6	533.25619860004
0	76	7	532.91648845131
0	97	8	531.66762977513
0	118	9	530.44069315436
0	188	10	530.2
0	229	11	530.2
0	270	12	530.2
0	341	13	530.2
0	382	14	530.2
0	423	15	530.2
0	494	16	530.2
0	535	17	530.2
0	576	18	530.2
0	647	19	530.2
0	688	20	530.2
0	729	21	530.2
0	800	22	530.2
1	5	4	30.1
1	25	5	30.522201357875
1	46	6	31.707502887793
1	76	7	33.378876819557
1	97	8	35.185318314817
1	118	9	37.815789680532
1	188	10	41.240692471247
1	229	11	45.142538289167
1	270	12	49.776054868847
1	341	13	54.985075607989
1	382	14	60.878880542889
1	423	15	67.522698639613
1	494	16	74.80747978976
1	535	17	82.579737657215
1	576	18	90.947598330304
1	647	19	100.04238166036
1	688	20	109.59575984264
1	729	21	119.56698926808
1	800	22	129.94453330627
2	25	5	0.42220135787502
2	46	6	1.1665109401569
2	76	7	1.626983862929
2	97	8	2.1015516825952
2	118	9	2.8299933132716
2	188	10	3.3934513144195
2	229	11	3.9018458179198
2	270	12	4.6335165796801
2	341	13	5.2090207391419
2	382	14	5.8938049349003
2	423	15	6.6438180967234
2	494	16	7.2847811501473
2	535	17	7.7722578674555
2	576	18	8.3678606730886
2	647	19	9.0947833300568
2	688	20	9.5533781822771
2	729	21	9.9712294254452
2	800	22	10.377544038184
3	46	6	0.74430958228186
3	76	7	0.46047292277217
3	97	8	0.47456781966612
3	118	9	0.72844163067639
3	188	10	0.56345800114796
3	229	11	0.50839450350031
3	270	12	0.73167076176032
3	341	13	0.57550415946171
3	382	14	0.6847841957584
3	423	15	0.75001316182315
3	494	16	0.64096305342391
3	535	17	0.48747671730816
3	576	18	0.5956028056331
3	647	19	0.72692265696824
3	688	20	0.45859485222027
3	729	21	0.41785124316812
3	800	22	0.40631461273879
4	46	6	1.3756662334723
4	76	7	1.3694364198914
4	97	8	1.4525925125835
4	118	9	1.7454305186661
4	188	10	1.7381182292717
4	229	11	1.781778798431
4	270	12	2.1597508882654
4	341	13	2.0968130443445
4	382	14	2.3859023880352
4	423	15	2.6584800335546
4	494	16	2.6224259166684
4	535	17	2.4414057386451
4	576	18	2.7689178871129
4	647	19	3.2115269196511
4	688	20	2.7072532374461
4	729	21	2.6867201785667
4	800	22	2.7300427502484
5	118	9	533.4
5	188	10	533.4
5	229	11	533.25740619218
5	270	12	532.80667521978
5	341	13	531.20998660281
5	382	14	530.2
5	423	15	530.2
5	494	16	530.2
5	535	17	530.2
5	576	18	530.2
5	647	19	530.2
5	688	20	530.2
5	729	21	530.2
5	800	22	530.2
6	118	9	30.1
6	188	10	30.596281486665
6	229	11	31.701561534459
6	270	12	33.590654692308
6	341	13	35.826018756073
6	382	14	39.044230206165
6	423	15	43.054423353031
6	494	16	47.705789282322
6	535	17	53.031642689154
6	576	18	59.148925482368
6	647	19	65.871303589443
6	688	20	73.019822314097
6	729	21	80.638539422865
6	800	22	88.826954968657
7	188	10	0.49628148666453
7	229	11	1.0866472546091
7	270	12	1.8649019670753
7	341	13	2.6205074382095
7	382	14	3.2758920596061
7	423	15	4.0101931468664
7	494	16	4.6513659292912
7	535	17	5.3258534068322
7	576	18	6.1172827932132
7	647	19	6.7223781070752
7	688	20	7.1485187246544
7	729	21	7.618717108768
7	800	22	8.188415545792
8	229	11	0.5903657679446
8	270	12	0.77825471246615
8	341	13	0.75560547113419
8	382	14	0.65538462139666
8	423	15	0.73430108726025
8	494	16	0.64117278242484
8	535	17	0.67448747754097
8	576	18	0.79142938638106
8	647	19	0.60509531386197
8	688	20	0.42614061757922
8	729	21	0.47019838411361
8	800	22	0.56969843702391
9	229	11	1.3171445575074
9	270	12	1.5503418953402
9	341	13	1.7152724649222
9	382	14	1.7886962206141
9	423	15	2.0190793735886
9	494	16	2.0624196254834
9	535	17	2.2465998696603
9	576	18	2.5930214680284
9	647	19	2.4426617556018
9	688	20	2.2227425103492
9	729	21	2.3817157176444
9	800	22	2.6799758933019

